
This summary file was generated by TurbSim (from OpenFAST-v3.4.1) on 18-Feb-2025 at 20:43:24.


Runtime Options:

    123456  Random seed #1
    RANLUX  Type of random number generator
         F  Output binary HH turbulence parameters?
         F  Output formatted turbulence parameters?
         F  Output AeroDyn HH files?
         T  Output AeroDyn FF files?
         F  Output BLADED FF files?
         F  Output tower data?
         F  Output HAWC FF files?
         F  Output formatted FF files?
         F  Output coherent turbulence time step file?
 0 -  NONE  IEC turbulence models scaled to exact specified standard deviation


Turbine/Model Specifications:

        35  Vertical grid-point matrix dimension
       100  Horizontal grid-point matrix dimension
     0.250  Time step [seconds]
     5.000  Analysis time [seconds]
     5.000  Usable output time [seconds]
    96.000  Hub height [m]
   170.000  Grid height [m]
   500.000  Grid width [m]
     0.000  Vertical flow angle [degrees]
     0.000  Horizontal flow angle [degrees]


Meteorological Boundary Conditions:

    IECKAI  IEC Kaimal spectral model
         1  IEC standard: IEC 61400-1 Ed. 3: 2005
    10.000  Percent turbulence intensity, IEC 61400-1 Ed. 3: 2005
       NTM  IEC Normal Turbulence Model
       N/A  IEC Extreme Turbulence Model (ETM) "c" parameter [m/s]
       PL   Wind profile type
    90.000  Reference height [m]
     8.000  Reference wind speed [m/s]
       N/A  Jet height [m]
     0.200  Power law exponent
     0.030  Surface roughness length [m]


Non-IEC Meteorological Boundary Conditions:

       N/A  Site latitude [degrees]
       N/A  Gradient Richardson number
       N/A  Friction or shear velocity [m/s]
       N/A  Mixing layer depth [m]
       N/A  Mean hub u'w' Reynolds stress
       N/A  Mean hub u'v' Reynolds stress
       N/A  Mean hub v'w' Reynolds stress


Spatial Coherence Models:

       IEC  u-component coherence model
       IEC  v-component coherence model
       IEC  w-component coherence model
(   12.000, 0.353E-03)  u-component coherence parameters
(   12.000, 0.353E-03)  v-component coherence parameters
(   12.000, 0.353E-03)  w-component coherence parameters
       N/A  Coherence exponent


You have requested that the following file(s) be generated:

   fastfarm\TSinflow\90m_08mps_mod1.bts (AeroDyn/TurbSim full-field wind file)


Turbulence Simulation Scaling Parameter Summary:

   Turbulence model used                            =  IEC Kaimal
   Turbulence characteristic                        =  User-specified
   IEC standard                                     =  IEC 61400-1 Ed. 3: 2005
   Mean wind speed at hub height                    =    8.104 m/s
   Characteristic value of standard deviation       =    0.810 m/s
   Turbulence scale                                 =   42.000 m
   u-component integral scale                       =  340.200 m
   Coherency scale                                  =  340.200 m
   Characteristic value of hub turbulence intensity =   10.000%
   Gradient Richardson number                       =    0.000

   Wind profile type                                =  Power law
   Power law exponent                               =    0.200
   Mean shear across rotor disk                     =    0.023 (m/s)/m
   Assumed rotor diameter                           =  170.000 m
   Surface roughness length                         =    0.030 m

   Nyquist frequency of turbulent wind field        =    2.000 Hz

   Number of time steps in the FFT                  =       20
   Number of time steps output                      =       20
   Number of points simulated                       =     3501


Mean Flow Angles:

   Vertical   =   0.0 degrees
   Horizontal =   0.0 degrees

Mean Wind Speed Profile:

   Height    Wind Speed   Horizontal Angle  Vertical Angle  U-comp (X)   V-comp (Y)   W-comp (Z)
     (m)        (m/s)         (degrees)       (degrees)       (m/s)        (m/s)        (m/s)   
   ------    ----------   ----------------  --------------  ----------   ----------   ----------
    181.0        9.20            0.00            0.00          9.20         0.00         0.00
    176.0        9.15            0.00            0.00          9.15         0.00         0.00
    171.0        9.10            0.00            0.00          9.10         0.00         0.00
    166.0        9.04            0.00            0.00          9.04         0.00         0.00
    161.0        8.99            0.00            0.00          8.99         0.00         0.00
    156.0        8.93            0.00            0.00          8.93         0.00         0.00
    151.0        8.87            0.00            0.00          8.87         0.00         0.00
    146.0        8.81            0.00            0.00          8.81         0.00         0.00
    141.0        8.75            0.00            0.00          8.75         0.00         0.00
    136.0        8.69            0.00            0.00          8.69         0.00         0.00
    131.0        8.62            0.00            0.00          8.62         0.00         0.00
    126.0        8.56            0.00            0.00          8.56         0.00         0.00
    121.0        8.49            0.00            0.00          8.49         0.00         0.00
    116.0        8.42            0.00            0.00          8.42         0.00         0.00
    111.0        8.34            0.00            0.00          8.34         0.00         0.00
    106.0        8.27            0.00            0.00          8.27         0.00         0.00
    101.0        8.19            0.00            0.00          8.19         0.00         0.00
     96.0        8.10            0.00            0.00          8.10         0.00         0.00
     96.0        8.10            0.00            0.00          8.10         0.00         0.00
     91.0        8.02            0.00            0.00          8.02         0.00         0.00
     86.0        7.93            0.00            0.00          7.93         0.00         0.00
     81.0        7.83            0.00            0.00          7.83         0.00         0.00
     76.0        7.73            0.00            0.00          7.73         0.00         0.00
     71.0        7.63            0.00            0.00          7.63         0.00         0.00
     66.0        7.52            0.00            0.00          7.52         0.00         0.00
     61.0        7.40            0.00            0.00          7.40         0.00         0.00
     56.0        7.28            0.00            0.00          7.28         0.00         0.00
     51.0        7.14            0.00            0.00          7.14         0.00         0.00
     46.0        7.00            0.00            0.00          7.00         0.00         0.00
     41.0        6.84            0.00            0.00          6.84         0.00         0.00
     36.0        6.66            0.00            0.00          6.66         0.00         0.00
     31.0        6.46            0.00            0.00          6.46         0.00         0.00
     26.0        6.24            0.00            0.00          6.24         0.00         0.00
     21.0        5.98            0.00            0.00          5.98         0.00         0.00
     16.0        5.66            0.00            0.00          5.66         0.00         0.00
     11.0        5.25            0.00            0.00          5.25         0.00         0.00


Harvested Random Seeds after Generation of the Random Numbers:

       975854 K 1
            0 K 2


Hub-Height Simulated Turbulence Statistical Summary:

   Type of Wind        Min (m/s)   Mean (m/s)    Max (m/s)  Sigma (m/s)       TI (%)
   ----------------    ---------   ----------    ---------  -----------       ------
   Longitudinal (u)         7.74         8.10         8.55        0.180        2.218
   Lateral (v)             -0.68        -0.00         0.38        0.327        4.040
   Vertical (w)            -0.62         0.00         0.59        0.353        4.354
   U component              7.74         8.10         8.55        0.180        2.218
   V component             -0.68        -0.00         0.38        0.327        4.040
   W component             -0.62         0.00         0.59        0.353        4.354
   Horizontal (U&V)         7.74         8.11         8.55        0.179        2.204
   Total                    7.74         8.12         8.57        0.182        2.243

                       Min Reynolds     Mean Reynolds    Max Reynolds    Correlation
   Product             Stress (m/s)^2   Stress (m/s)^2   Stress (m/s)^2  Coefficient
   ----------------    --------------   --------------   --------------  -----------
   u'w'                     -0.273            -0.021             0.045        -0.334
   u'v'                     -0.078             0.013             0.168         0.217
   v'w'                     -0.215             0.015             0.182         0.127


   Friction Velocity (Ustar)  =      0.146 m/s
   Maximum Instantaneous TKE  =      0.311 (m/s)^2
   Maximum Instantaneous CTKE =      0.152 (m/s)^2


Grid Point Variance Summary:

   Y-coord -250.00 -244.95 -239.90 -234.85 -229.80 -224.75 -219.70 -214.65 -209.60 -204.55 -199.49 -194.44 -189.39 -184.34 -179.29 -174.24 -169.19 -164.14 -159.09 -154.04 -148.99 -143.94 -138.89 -133.84 -128.79 -123.74 -118.69 -113.64 -108.59 -103.54  -98.48  -93.43  -88.38  -83.33  -78.28  -73.23  -68.18  -63.13  -58.08  -53.03  -47.98  -42.93  -37.88  -32.83  -27.78  -22.73  -17.68  -12.63   -7.58   -2.53    2.53    7.58   12.63   17.68   22.73   27.78   32.83   37.88   42.93   47.98   53.03   58.08   63.13   68.18   73.23   78.28   83.33   88.38   93.43   98.48  103.54  108.59  113.64  118.69  123.74  128.79  133.84  138.89  143.94  148.99  154.04  159.09  164.14  169.19  174.24  179.29  184.34  189.39  194.44  199.49  204.55  209.60  214.65  219.70  224.75  229.80  234.85  239.90  244.95  250.00

   Height   Standard deviation at grid points for the u component:
   181.00    0.239   0.249   0.203   0.267   0.297   0.265   0.200   0.217   0.227   0.279   0.265   0.222   0.278   0.273   0.234   0.260   0.277   0.245   0.184   0.242   0.275   0.287   0.205   0.265   0.232   0.228   0.245   0.238   0.239   0.271   0.228   0.221   0.257   0.239   0.236   0.237   0.227   0.264   0.262   0.232   0.252   0.185   0.268   0.255   0.222   0.252   0.245   0.236   0.293   0.270   0.257   0.245   0.193   0.244   0.227   0.243   0.249   0.191   0.215   0.244   0.203   0.237   0.201   0.217   0.202   0.243   0.236   0.253   0.300   0.176   0.238   0.208   0.239   0.259   0.248   0.196   0.209   0.239   0.222   0.219   0.200   0.239   0.280   0.235   0.273   0.232   0.288   0.234   0.249   0.262   0.239   0.234   0.279   0.281   0.265   0.237   0.220   0.206   0.199   0.242
   176.00    0.201   0.229   0.206   0.237   0.284   0.190   0.226   0.220   0.208   0.261   0.264   0.210   0.244   0.218   0.224   0.192   0.202   0.213   0.265   0.254   0.274   0.284   0.177   0.247   0.230   0.235   0.228   0.232   0.247   0.243   0.295   0.180   0.223   0.233   0.242   0.205   0.232   0.222   0.223   0.207   0.195   0.227   0.273   0.285   0.190   0.243   0.273   0.194   0.246   0.268   0.180   0.207   0.242   0.232   0.269   0.219   0.198   0.238   0.227   0.257   0.224   0.255   0.194   0.274   0.179   0.224   0.191   0.233   0.271   0.258   0.225   0.238   0.245   0.212   0.260   0.314   0.296   0.240   0.252   0.266   0.206   0.233   0.274   0.231   0.216   0.228   0.256   0.253   0.191   0.228   0.232   0.225   0.209   0.223   0.221   0.235   0.196   0.197   0.197   0.211
   171.00    0.280   0.218   0.237   0.238   0.239   0.254   0.286   0.266   0.189   0.247   0.227   0.217   0.203   0.207   0.229   0.239   0.284   0.267   0.206   0.226   0.251   0.269   0.278   0.218   0.219   0.225   0.268   0.284   0.233   0.202   0.215   0.228   0.221   0.208   0.223   0.229   0.203   0.217   0.249   0.235   0.254   0.234   0.235   0.239   0.251   0.239   0.225   0.228   0.240   0.260   0.238   0.256   0.219   0.247   0.255   0.214   0.230   0.200   0.222   0.216   0.199   0.199   0.208   0.237   0.296   0.183   0.223   0.285   0.229   0.227   0.211   0.209   0.215   0.225   0.267   0.299   0.242   0.247   0.229   0.244   0.194   0.218   0.257   0.252   0.250   0.216   0.233   0.228   0.198   0.235   0.200   0.239   0.265   0.216   0.229   0.211   0.237   0.233   0.260   0.287
   166.00    0.257   0.297   0.261   0.221   0.243   0.260   0.226   0.220   0.254   0.219   0.208   0.209   0.201   0.244   0.178   0.248   0.206   0.235   0.257   0.215   0.232   0.233   0.252   0.237   0.259   0.185   0.218   0.240   0.232   0.253   0.241   0.238   0.246   0.179   0.241   0.239   0.223   0.209   0.261   0.248   0.246   0.264   0.223   0.213   0.241   0.222   0.293   0.186   0.239   0.253   0.225   0.240   0.199   0.213   0.223   0.209   0.210   0.247   0.238   0.251   0.203   0.239   0.265   0.220   0.268   0.301   0.186   0.243   0.267   0.226   0.227   0.214   0.223   0.216   0.259   0.296   0.227   0.253   0.220   0.236   0.260   0.259   0.220   0.185   0.207   0.220   0.247   0.189   0.222   0.263   0.188   0.226   0.232   0.236   0.224   0.242   0.212   0.189   0.220   0.228
   161.00    0.255   0.235   0.212   0.236   0.182   0.224   0.241   0.280   0.202   0.196   0.220   0.261   0.248   0.234   0.253   0.270   0.223   0.214   0.198   0.251   0.240   0.233   0.230   0.202   0.228   0.253   0.255   0.188   0.233   0.224   0.224   0.216   0.212   0.232   0.264   0.259   0.189   0.218   0.275   0.197   0.200   0.226   0.192   0.242   0.294   0.177   0.237   0.240   0.239   0.234   0.196   0.223   0.235   0.251   0.266   0.241   0.241   0.190   0.220   0.232   0.270   0.190   0.206   0.259   0.194   0.234   0.266   0.232   0.254   0.216   0.243   0.196   0.236   0.285   0.302   0.290   0.221   0.232   0.246   0.192   0.258   0.189   0.262   0.252   0.252   0.227   0.276   0.281   0.197   0.235   0.219   0.193   0.239   0.200   0.264   0.226   0.242   0.263   0.243   0.239
   156.00    0.256   0.195   0.262   0.248   0.269   0.218   0.252   0.251   0.224   0.221   0.271   0.231   0.204   0.218   0.224   0.230   0.205   0.208   0.210   0.272   0.268   0.195   0.234   0.224   0.268   0.214   0.222   0.248   0.198   0.196   0.233   0.252   0.182   0.233   0.205   0.274   0.231   0.243   0.204   0.208   0.256   0.237   0.257   0.264   0.240   0.253   0.216   0.215   0.191   0.225   0.237   0.224   0.199   0.201   0.216   0.218   0.232   0.214   0.218   0.228   0.242   0.230   0.202   0.248   0.241   0.268   0.204   0.246   0.265   0.193   0.207   0.218   0.264   0.242   0.231   0.258   0.185   0.204   0.227   0.222   0.202   0.237   0.273   0.196   0.217   0.237   0.283   0.254   0.254   0.269   0.241   0.231   0.232   0.243   0.262   0.215   0.234   0.220   0.261   0.299
   151.00    0.212   0.231   0.268   0.283   0.234   0.206   0.232   0.217   0.208   0.235   0.243   0.254   0.190   0.214   0.201   0.230   0.246   0.283   0.197   0.239   0.276   0.223   0.233   0.211   0.254   0.241   0.216   0.199   0.231   0.209   0.231   0.240   0.262   0.227   0.200   0.206   0.236   0.244   0.238   0.281   0.231   0.236   0.185   0.204   0.234   0.257   0.180   0.223   0.255   0.186   0.209   0.263   0.279   0.243   0.289   0.299   0.280   0.175   0.217   0.201   0.260   0.197   0.203   0.220   0.229   0.268   0.243   0.243   0.289   0.229   0.182   0.214   0.239   0.186   0.218   0.219   0.223   0.193   0.254   0.293   0.299   0.231   0.236   0.231   0.210   0.194   0.258   0.266   0.271   0.205   0.250   0.241   0.235   0.220   0.231   0.236   0.249   0.228   0.258   0.289
   146.00    0.200   0.196   0.257   0.287   0.260   0.232   0.188   0.210   0.270   0.202   0.216   0.227   0.241   0.250   0.183   0.220   0.206   0.229   0.285   0.193   0.238   0.240   0.225   0.250   0.244   0.276   0.236   0.235   0.281   0.244   0.237   0.282   0.194   0.270   0.220   0.230   0.252   0.222   0.201   0.253   0.270   0.263   0.250   0.284   0.246   0.240   0.227   0.259   0.270   0.245   0.268   0.284   0.265   0.203   0.236   0.257   0.238   0.283   0.269   0.185   0.258   0.215   0.280   0.229   0.243   0.225   0.232   0.259   0.222   0.235   0.252   0.232   0.236   0.226   0.225   0.200   0.230   0.245   0.246   0.249   0.247   0.226   0.185   0.205   0.216   0.236   0.260   0.242   0.225   0.244   0.199   0.221   0.227   0.219   0.287   0.190   0.226   0.233   0.198   0.248
   141.00    0.256   0.291   0.282   0.253   0.244   0.262   0.233   0.269   0.230   0.254   0.277   0.246   0.222   0.251   0.268   0.212   0.209   0.236   0.259   0.214   0.203   0.247   0.185   0.221   0.261   0.254   0.284   0.221   0.280   0.198   0.208   0.225   0.216   0.260   0.204   0.230   0.236   0.205   0.237   0.239   0.191   0.201   0.249   0.243   0.213   0.205   0.220   0.222   0.232   0.227   0.272   0.264   0.217   0.205   0.230   0.207   0.224   0.213   0.238   0.272   0.260   0.276   0.264   0.246   0.232   0.212   0.244   0.256   0.266   0.285   0.181   0.214   0.220   0.231   0.254   0.219   0.248   0.261   0.221   0.217   0.220   0.218   0.238   0.225   0.251   0.240   0.222   0.241   0.200   0.204   0.224   0.241   0.204   0.222   0.247   0.286   0.225   0.246   0.179   0.244
   136.00    0.264   0.211   0.247   0.241   0.219   0.257   0.221   0.275   0.220   0.192   0.241   0.237   0.193   0.245   0.283   0.292   0.229   0.231   0.204   0.244   0.204   0.209   0.222   0.259   0.264   0.243   0.232   0.226   0.234   0.222   0.235   0.268   0.243   0.270   0.228   0.199   0.190   0.263   0.221   0.221   0.289   0.301   0.278   0.216   0.282   0.295   0.252   0.251   0.211   0.215   0.231   0.203   0.212   0.265   0.176   0.243   0.210   0.207   0.227   0.268   0.233   0.238   0.244   0.271   0.197   0.235   0.250   0.189   0.269   0.231   0.238   0.229   0.288   0.223   0.199   0.231   0.223   0.201   0.238   0.276   0.175   0.259   0.243   0.250   0.266   0.258   0.182   0.209   0.220   0.264   0.261   0.285   0.202   0.239   0.237   0.265   0.268   0.194   0.215   0.234
   131.00    0.233   0.221   0.234   0.208   0.198   0.233   0.199   0.231   0.249   0.252   0.191   0.220   0.252   0.222   0.205   0.258   0.192   0.230   0.272   0.261   0.199   0.247   0.259   0.218   0.233   0.208   0.228   0.208   0.217   0.234   0.231   0.204   0.250   0.209   0.231   0.282   0.289   0.288   0.258   0.200   0.228   0.286   0.259   0.195   0.266   0.291   0.284   0.259   0.245   0.230   0.201   0.258   0.278   0.286   0.245   0.238   0.205   0.228   0.194   0.252   0.277   0.190   0.205   0.240   0.276   0.223   0.235   0.259   0.229   0.248   0.197   0.208   0.270   0.297   0.280   0.222   0.212   0.213   0.242   0.276   0.287   0.210   0.261   0.213   0.226   0.216   0.244   0.259   0.254   0.213   0.238   0.278   0.237   0.228   0.220   0.266   0.271   0.274   0.245   0.267
   126.00    0.265   0.225   0.233   0.229   0.213   0.220   0.216   0.232   0.270   0.198   0.224   0.214   0.213   0.233   0.264   0.230   0.258   0.226   0.278   0.227   0.220   0.216   0.226   0.217   0.243   0.198   0.246   0.202   0.275   0.245   0.230   0.204   0.248   0.293   0.276   0.267   0.270   0.257   0.212   0.206   0.204   0.240   0.266   0.246   0.203   0.206   0.228   0.214   0.222   0.196   0.260   0.238   0.261   0.274   0.176   0.223   0.227   0.234   0.257   0.201   0.209   0.222   0.233   0.251   0.252   0.256   0.221   0.252   0.222   0.272   0.254   0.198   0.209   0.232   0.247   0.245   0.249   0.179   0.241   0.274   0.251   0.212   0.243   0.259   0.226   0.199   0.246   0.218   0.264   0.205   0.265   0.201   0.205   0.241   0.228   0.238   0.253   0.242   0.239   0.213
   121.00    0.278   0.182   0.203   0.244   0.257   0.247   0.273   0.242   0.241   0.206   0.203   0.245   0.228   0.261   0.239   0.239   0.229   0.201   0.219   0.254   0.272   0.203   0.215   0.256   0.305   0.186   0.273   0.229   0.216   0.237   0.235   0.253   0.249   0.252   0.250   0.194   0.214   0.217   0.235   0.253   0.263   0.217   0.227   0.204   0.260   0.245   0.241   0.248   0.234   0.251   0.182   0.230   0.239   0.223   0.248   0.271   0.225   0.195   0.249   0.231   0.228   0.205   0.222   0.254   0.253   0.239   0.210   0.226   0.198   0.222   0.238   0.194   0.238   0.209   0.217   0.229   0.233   0.218   0.245   0.239   0.234   0.192   0.256   0.197   0.216   0.225   0.249   0.173   0.242   0.195   0.251   0.293   0.199   0.244   0.241   0.263   0.236   0.204   0.236   0.209
   116.00    0.244   0.281   0.243   0.265   0.195   0.216   0.208   0.245   0.242   0.232   0.265   0.226   0.229   0.217   0.248   0.257   0.189   0.234   0.226   0.205   0.252   0.180   0.253   0.287   0.295   0.276   0.230   0.278   0.184   0.258   0.176   0.245   0.232   0.275   0.186   0.211   0.243   0.249   0.244   0.218   0.254   0.182   0.211   0.213   0.227   0.212   0.209   0.186   0.230   0.252   0.243   0.208   0.224   0.225   0.202   0.242   0.193   0.219   0.240   0.278   0.188   0.257   0.250   0.223   0.230   0.195   0.263   0.192   0.198   0.226   0.236   0.193   0.228   0.239   0.207   0.231   0.224   0.233   0.244   0.200   0.216   0.215   0.243   0.240   0.231   0.271   0.230   0.237   0.247   0.258   0.198   0.241   0.267   0.194   0.226   0.197   0.254   0.238   0.218   0.245
   111.00    0.204   0.245   0.263   0.234   0.236   0.251   0.278   0.231   0.211   0.236   0.293   0.182   0.220   0.229   0.252   0.273   0.246   0.214   0.243   0.267   0.292   0.258   0.249   0.261   0.233   0.217   0.217   0.252   0.215   0.270   0.285   0.208   0.228   0.243   0.250   0.235   0.191   0.240   0.212   0.264   0.300   0.283   0.233   0.207   0.244   0.217   0.247   0.280   0.289   0.248   0.212   0.228   0.239   0.253   0.197   0.281   0.242   0.281   0.222   0.189   0.220   0.267   0.193   0.238   0.246   0.263   0.256   0.256   0.229   0.260   0.226   0.197   0.232   0.270   0.260   0.206   0.271   0.200   0.221   0.224   0.277   0.179   0.203   0.258   0.203   0.199   0.223   0.272   0.292   0.195   0.225   0.201   0.230   0.269   0.195   0.250   0.271   0.267   0.249   0.202
   106.00    0.239   0.239   0.225   0.293   0.168   0.245   0.281   0.229   0.202   0.243   0.291   0.232   0.236   0.216   0.187   0.249   0.207   0.271   0.305   0.263   0.285   0.212   0.190   0.230   0.238   0.242   0.240   0.262   0.257   0.257   0.263   0.222   0.235   0.268   0.277   0.231   0.273   0.227   0.214   0.257   0.287   0.216   0.255   0.255   0.210   0.246   0.301   0.310   0.284   0.227   0.215   0.227   0.231   0.205   0.238   0.262   0.249   0.229   0.222   0.230   0.250   0.226   0.220   0.211   0.195   0.241   0.240   0.220   0.242   0.201   0.205   0.213   0.254   0.227   0.218   0.184   0.217   0.228   0.247   0.261   0.209   0.271   0.196   0.247   0.243   0.261   0.283   0.213   0.225   0.228   0.236   0.271   0.199   0.207   0.251   0.197   0.239   0.244   0.200   0.235
   101.00    0.218   0.219   0.244   0.287   0.308   0.277   0.243   0.242   0.236   0.211   0.270   0.215   0.242   0.217   0.247   0.297   0.179   0.272   0.249   0.269   0.263   0.189   0.243   0.252   0.212   0.248   0.259   0.256   0.222   0.238   0.209   0.225   0.207   0.201   0.248   0.216   0.243   0.186   0.278   0.299   0.290   0.217   0.207   0.225   0.221   0.263   0.248   0.269   0.293   0.246   0.209   0.226   0.263   0.196   0.241   0.256   0.203   0.256   0.204   0.245   0.273   0.187   0.248   0.277   0.219   0.254   0.202   0.204   0.235   0.241   0.216   0.222   0.233   0.197   0.251   0.260   0.235   0.247   0.182   0.243   0.199   0.204   0.269   0.179   0.251   0.185   0.230   0.231   0.231   0.238   0.229   0.221   0.235   0.239   0.232   0.282   0.234   0.257   0.214   0.214
    96.00    0.221   0.232   0.214   0.271   0.302   0.207   0.239   0.226   0.225   0.208   0.266   0.200   0.261   0.259   0.270   0.227   0.260   0.218   0.277   0.279   0.191   0.214   0.250   0.173   0.240   0.199   0.248   0.175   0.218   0.208   0.240   0.253   0.233   0.220   0.273   0.284   0.253   0.274   0.276   0.253   0.266   0.219   0.227   0.256   0.217   0.212   0.241   0.206   0.264   0.283   0.265   0.216   0.228   0.239   0.229   0.262   0.186   0.213   0.223   0.221   0.264   0.235   0.241   0.254   0.203   0.209   0.263   0.280   0.254   0.257   0.218   0.253   0.223   0.242   0.249   0.208   0.231   0.195   0.223   0.246   0.219   0.269   0.255   0.262   0.290   0.193   0.213   0.242   0.191   0.229   0.209   0.238   0.199   0.246   0.207   0.239   0.260   0.282   0.186   0.250
    91.00    0.244   0.199   0.228   0.235   0.270   0.264   0.245   0.204   0.264   0.205   0.224   0.202   0.236   0.200   0.231   0.232   0.241   0.254   0.262   0.243   0.260   0.209   0.244   0.271   0.292   0.270   0.248   0.288   0.222   0.228   0.265   0.181   0.228   0.216   0.256   0.278   0.257   0.259   0.232   0.267   0.232   0.219   0.233   0.221   0.243   0.257   0.287   0.241   0.231   0.250   0.194   0.243   0.210   0.236   0.206   0.194   0.230   0.268   0.224   0.225   0.246   0.209   0.255   0.240   0.230   0.259   0.279   0.243   0.248   0.220   0.199   0.218   0.261   0.217   0.218   0.209   0.215   0.264   0.228   0.240   0.195   0.233   0.210   0.266   0.213   0.237   0.240   0.223   0.227   0.236   0.256   0.267   0.258   0.278   0.271   0.193   0.240   0.236   0.286   0.259
    86.00    0.227   0.219   0.226   0.205   0.239   0.251   0.211   0.246   0.228   0.252   0.188   0.247   0.262   0.215   0.205   0.228   0.254   0.176   0.199   0.239   0.199   0.216   0.198   0.263   0.298   0.176   0.251   0.254   0.188   0.241   0.287   0.238   0.291   0.201   0.208   0.247   0.218   0.216   0.267   0.287   0.208   0.228   0.199   0.242   0.225   0.192   0.213   0.269   0.269   0.210   0.249   0.286   0.183   0.209   0.228   0.214   0.254   0.271   0.206   0.240   0.275   0.196   0.195   0.212   0.238   0.227   0.256   0.237   0.193   0.250   0.185   0.216   0.238   0.199   0.263   0.198   0.208   0.233   0.235   0.261   0.208   0.222   0.196   0.244   0.248   0.232   0.232   0.234   0.186   0.209   0.237   0.267   0.204   0.258   0.197   0.263   0.245   0.227   0.225   0.225
    81.00    0.249   0.197   0.225   0.301   0.323   0.312   0.191   0.215   0.241   0.223   0.229   0.242   0.201   0.261   0.238   0.238   0.228   0.270   0.295   0.218   0.229   0.197   0.276   0.181   0.221   0.279   0.281   0.193   0.227   0.261   0.231   0.249   0.252   0.225   0.209   0.228   0.201   0.242   0.252   0.269   0.227   0.193   0.231   0.258   0.225   0.238   0.253   0.222   0.233   0.242   0.202   0.238   0.239   0.190   0.236   0.214   0.235   0.204   0.194   0.198   0.242   0.232   0.223   0.267   0.268   0.216   0.208   0.224   0.205   0.246   0.236   0.223   0.221   0.242   0.196   0.258   0.185   0.229   0.231   0.264   0.288   0.269   0.273   0.197   0.207   0.239   0.233   0.231   0.243   0.239   0.258   0.270   0.231   0.234   0.242   0.241   0.189   0.233   0.215   0.238
    76.00    0.237   0.222   0.216   0.271   0.300   0.278   0.220   0.257   0.269   0.207   0.245   0.204   0.248   0.284   0.297   0.217   0.246   0.231   0.252   0.258   0.212   0.230   0.249   0.287   0.193   0.232   0.260   0.213   0.218   0.226   0.233   0.227   0.228   0.241   0.279   0.266   0.265   0.211   0.254   0.222   0.225   0.208   0.206   0.229   0.190   0.255   0.239   0.226   0.248   0.221   0.211   0.211   0.230   0.232   0.271   0.239   0.215   0.222   0.237   0.272   0.267   0.215   0.223   0.200   0.218   0.219   0.229   0.220   0.294   0.311   0.195   0.204   0.226   0.197   0.258   0.178   0.212   0.228   0.217   0.221   0.262   0.292   0.248   0.216   0.250   0.293   0.288   0.228   0.221   0.215   0.256   0.240   0.257   0.232   0.197   0.227   0.234   0.215   0.208   0.241
    71.00    0.245   0.203   0.207   0.260   0.283   0.296   0.222   0.200   0.227   0.195   0.209   0.225   0.214   0.252   0.268   0.208   0.211   0.247   0.239   0.232   0.192   0.210   0.220   0.241   0.284   0.244   0.200   0.197   0.239   0.229   0.230   0.195   0.199   0.249   0.243   0.234   0.241   0.258   0.232   0.250   0.227   0.285   0.219   0.242   0.240   0.209   0.206   0.215   0.228   0.244   0.191   0.268   0.193   0.247   0.244   0.189   0.234   0.248   0.185   0.212   0.240   0.216   0.238   0.217   0.259   0.259   0.220   0.262   0.266   0.257   0.270   0.245   0.240   0.239   0.234   0.288   0.277   0.226   0.216   0.223   0.274   0.226   0.235   0.205   0.234   0.276   0.279   0.295   0.259   0.220   0.287   0.189   0.260   0.210   0.230   0.226   0.252   0.229   0.245   0.268
    66.00    0.270   0.212   0.234   0.217   0.226   0.278   0.229   0.194   0.219   0.225   0.229   0.252   0.259   0.272   0.223   0.259   0.228   0.237   0.182   0.224   0.249   0.199   0.270   0.188   0.264   0.310   0.308   0.221   0.257   0.286   0.216   0.246   0.292   0.249   0.192   0.253   0.230   0.202   0.205   0.261   0.286   0.298   0.296   0.231   0.232   0.198   0.278   0.173   0.247   0.235   0.238   0.199   0.229   0.255   0.243   0.241   0.206   0.204   0.226   0.247   0.270   0.211   0.243   0.225   0.238   0.189   0.207   0.207   0.230   0.212   0.238   0.213   0.256   0.232   0.203   0.280   0.254   0.190   0.247   0.228   0.245   0.231   0.225   0.231   0.223   0.207   0.244   0.264   0.253   0.189   0.228   0.247   0.239   0.212   0.184   0.234   0.285   0.194   0.246   0.238
    61.00    0.258   0.208   0.237   0.244   0.285   0.188   0.246   0.276   0.198   0.222   0.198   0.225   0.206   0.268   0.204   0.253   0.283   0.197   0.249   0.226   0.200   0.247   0.252   0.205   0.265   0.294   0.295   0.284   0.305   0.230   0.239   0.207   0.278   0.189   0.232   0.281   0.191   0.229   0.197   0.197   0.238   0.239   0.276   0.183   0.230   0.212   0.263   0.287   0.215   0.229   0.235   0.193   0.261   0.239   0.242   0.211   0.253   0.249   0.224   0.225   0.203   0.233   0.218   0.218   0.251   0.254   0.269   0.208   0.235   0.198   0.227   0.222   0.210   0.215   0.269   0.296   0.206   0.262   0.233   0.265   0.233   0.244   0.249   0.188   0.257   0.246   0.201   0.244   0.198   0.258   0.215   0.239   0.207   0.194   0.238   0.236   0.219   0.239   0.215   0.246
    56.00    0.257   0.271   0.247   0.197   0.229   0.271   0.246   0.244   0.233   0.225   0.228   0.190   0.241   0.273   0.251   0.181   0.217   0.235   0.255   0.193   0.214   0.228   0.237   0.255   0.230   0.229   0.232   0.256   0.304   0.282   0.246   0.223   0.229   0.236   0.217   0.215   0.221   0.195   0.253   0.260   0.283   0.176   0.226   0.260   0.213   0.255   0.204   0.219   0.214   0.211   0.232   0.281   0.225   0.254   0.274   0.214   0.207   0.200   0.261   0.179   0.216   0.226   0.222   0.218   0.196   0.209   0.277   0.290   0.178   0.215   0.237   0.249   0.191   0.209   0.247   0.237   0.266   0.260   0.262   0.178   0.209   0.231   0.255   0.278   0.227   0.216   0.228   0.267   0.257   0.205   0.208   0.259   0.204   0.207   0.275   0.260   0.225   0.191   0.250   0.239
    51.00    0.201   0.231   0.224   0.205   0.248   0.259   0.184   0.210   0.236   0.180   0.204   0.216   0.258   0.225   0.268   0.264   0.206   0.225   0.185   0.259   0.204   0.257   0.221   0.212   0.206   0.267   0.247   0.289   0.270   0.274   0.218   0.289   0.227   0.258   0.207   0.226   0.257   0.251   0.291   0.200   0.245   0.251   0.249   0.212   0.236   0.218   0.191   0.246   0.186   0.200   0.212   0.228   0.268   0.195   0.216   0.220   0.214   0.259   0.182   0.209   0.234   0.216   0.236   0.204   0.231   0.181   0.254   0.248   0.254   0.297   0.214   0.262   0.249   0.218   0.235   0.258   0.219   0.231   0.206   0.208   0.217   0.240   0.205   0.244   0.199   0.273   0.203   0.208   0.269   0.286   0.298   0.184   0.243   0.212   0.259   0.227   0.236   0.268   0.263   0.273
    46.00    0.235   0.267   0.221   0.228   0.215   0.210   0.267   0.291   0.243   0.233   0.273   0.272   0.224   0.191   0.198   0.226   0.248   0.260   0.270   0.284   0.243   0.252   0.187   0.226   0.209   0.259   0.181   0.251   0.287   0.255   0.211   0.245   0.269   0.194   0.233   0.234   0.191   0.218   0.240   0.212   0.267   0.278   0.213   0.202   0.233   0.228   0.217   0.266   0.233   0.244   0.253   0.244   0.235   0.243   0.255   0.264   0.242   0.189   0.262   0.300   0.189   0.211   0.252   0.281   0.180   0.253   0.314   0.166   0.237   0.283   0.274   0.280   0.202   0.212   0.201   0.251   0.216   0.216   0.206   0.270   0.257   0.234   0.260   0.242   0.220   0.238   0.231   0.191   0.243   0.252   0.222   0.227   0.256   0.194   0.217   0.193   0.237   0.254   0.201   0.226
    41.00    0.220   0.230   0.222   0.209   0.260   0.205   0.266   0.278   0.270   0.246   0.206   0.282   0.191   0.270   0.273   0.284   0.225   0.244   0.243   0.193   0.216   0.209   0.257   0.247   0.199   0.261   0.261   0.224   0.246   0.238   0.196   0.214   0.249   0.190   0.235   0.213   0.271   0.190   0.234   0.238   0.218   0.216   0.194   0.223   0.211   0.216   0.228   0.229   0.249   0.203   0.250   0.217   0.259   0.259   0.277   0.252   0.211   0.205   0.231   0.281   0.227   0.244   0.232   0.234   0.221   0.243   0.282   0.293   0.297   0.292   0.199   0.239   0.228   0.221   0.257   0.184   0.234   0.180   0.230   0.260   0.292   0.290   0.217   0.222   0.195   0.263   0.271   0.221   0.193   0.232   0.241   0.278   0.202   0.233   0.222   0.217   0.256   0.233   0.302   0.275
    36.00    0.268   0.192   0.221   0.253   0.216   0.293   0.252   0.278   0.269   0.210   0.253   0.228   0.271   0.233   0.181   0.231   0.273   0.283   0.216   0.276   0.279   0.194   0.258   0.181   0.222   0.237   0.260   0.247   0.220   0.239   0.206   0.208   0.226   0.256   0.212   0.240   0.233   0.256   0.231   0.245   0.281   0.263   0.204   0.272   0.254   0.231   0.216   0.254   0.194   0.234   0.217   0.233   0.213   0.209   0.262   0.245   0.190   0.240   0.193   0.258   0.243   0.222   0.230   0.251   0.254   0.216   0.232   0.271   0.240   0.233   0.230   0.240   0.192   0.214   0.227   0.222   0.238   0.254   0.230   0.215   0.239   0.268   0.211   0.233   0.232   0.230   0.240   0.221   0.217   0.233   0.240   0.293   0.192   0.219   0.243   0.218   0.254   0.220   0.276   0.247
    31.00    0.241   0.257   0.277   0.271   0.286   0.302   0.271   0.272   0.234   0.208   0.256   0.282   0.226   0.200   0.261   0.279   0.267   0.219   0.207   0.230   0.282   0.182   0.266   0.302   0.270   0.205   0.214   0.237   0.224   0.206   0.246   0.203   0.202   0.252   0.209   0.245   0.238   0.274   0.173   0.215   0.226   0.207   0.195   0.258   0.206   0.204   0.220   0.199   0.227   0.218   0.229   0.275   0.285   0.254   0.240   0.262   0.256   0.217   0.244   0.199   0.203   0.231   0.227   0.228   0.254   0.190   0.264   0.299   0.179   0.217   0.252   0.205   0.232   0.205   0.233   0.205   0.221   0.263   0.219   0.261   0.214   0.221   0.236   0.226   0.220   0.222   0.238   0.266   0.190   0.246   0.270   0.244   0.251   0.248   0.232   0.229   0.262   0.221   0.228   0.241
    26.00    0.237   0.233   0.293   0.261   0.226   0.270   0.268   0.262   0.190   0.239   0.233   0.212   0.258   0.182   0.218   0.204   0.255   0.285   0.222   0.216   0.266   0.238   0.218   0.236   0.264   0.229   0.216   0.253   0.247   0.251   0.171   0.221   0.201   0.234   0.261   0.221   0.214   0.228   0.235   0.244   0.258   0.247   0.200   0.263   0.254   0.232   0.209   0.239   0.207   0.232   0.206   0.267   0.254   0.219   0.214   0.260   0.178   0.230   0.239   0.260   0.194   0.244   0.221   0.222   0.185   0.252   0.261   0.255   0.256   0.246   0.260   0.281   0.235   0.197   0.237   0.189   0.207   0.221   0.216   0.259   0.221   0.261   0.251   0.267   0.217   0.201   0.226   0.272   0.205   0.205   0.239   0.206   0.248   0.198   0.204   0.230   0.250   0.217   0.235   0.245
    21.00    0.228   0.236   0.263   0.270   0.199   0.207   0.219   0.229   0.278   0.240   0.287   0.183   0.228   0.244   0.233   0.232   0.268   0.273   0.208   0.202   0.227   0.199   0.242   0.296   0.221   0.235   0.183   0.229   0.243   0.295   0.297   0.269   0.225   0.249   0.239   0.222   0.222   0.226   0.278   0.258   0.234   0.234   0.235   0.181   0.212   0.244   0.220   0.202   0.263   0.199   0.263   0.281   0.216   0.193   0.254   0.201   0.255   0.240   0.211   0.232   0.265   0.211   0.235   0.194   0.228   0.279   0.212   0.214   0.233   0.267   0.253   0.234   0.253   0.269   0.243   0.271   0.239   0.278   0.203   0.267   0.245   0.200   0.199   0.226   0.218   0.221   0.212   0.261   0.215   0.243   0.248   0.223   0.232   0.199   0.214   0.256   0.260   0.237   0.285   0.180
    16.00    0.221   0.225   0.282   0.191   0.215   0.250   0.272   0.176   0.212   0.239   0.269   0.214   0.273   0.188   0.227   0.221   0.280   0.222   0.239   0.183   0.232   0.232   0.224   0.300   0.309   0.211   0.241   0.214   0.209   0.256   0.275   0.195   0.205   0.236   0.239   0.224   0.251   0.199   0.231   0.255   0.228   0.258   0.225   0.263   0.287   0.270   0.211   0.235   0.191   0.233   0.236   0.243   0.189   0.251   0.300   0.199   0.256   0.201   0.255   0.223   0.237   0.189   0.240   0.228   0.234   0.242   0.215   0.232   0.240   0.297   0.205   0.195   0.232   0.230   0.218   0.271   0.214   0.221   0.240   0.235   0.218   0.246   0.224   0.264   0.241   0.180   0.216   0.216   0.234   0.221   0.211   0.224   0.237   0.274   0.228   0.232   0.225   0.240   0.237   0.233
    11.00    0.237   0.209   0.255   0.270   0.269   0.272   0.207   0.246   0.261   0.218   0.210   0.221   0.240   0.251   0.204   0.238   0.227   0.254   0.218   0.259   0.241   0.254   0.254   0.265   0.266   0.260   0.201   0.235   0.224   0.259   0.226   0.246   0.246   0.203   0.211   0.256   0.268   0.262   0.216   0.225   0.214   0.238   0.264   0.205   0.256   0.268   0.200   0.253   0.219   0.257   0.220   0.262   0.268   0.222   0.259   0.259   0.255   0.254   0.210   0.211   0.214   0.254   0.211   0.212   0.255   0.258   0.200   0.255   0.232   0.243   0.264   0.245   0.252   0.210   0.254   0.236   0.262   0.258   0.204   0.251   0.207   0.224   0.212   0.225   0.228   0.250   0.257   0.259   0.233   0.206   0.254   0.216   0.213   0.225   0.244   0.214   0.213   0.234   0.236   0.224

   Height   Standard deviation at grid points for the v component:
   181.00    0.308   0.330   0.351   0.217   0.253   0.246   0.297   0.305   0.230   0.295   0.202   0.273   0.272   0.259   0.283   0.277   0.301   0.276   0.305   0.232   0.264   0.244   0.276   0.238   0.243   0.227   0.231   0.296   0.246   0.225   0.223   0.262   0.272   0.261   0.262   0.267   0.269   0.254   0.233   0.251   0.260   0.265   0.280   0.251   0.271   0.244   0.228   0.248   0.267   0.251   0.256   0.276   0.259   0.235   0.244   0.272   0.288   0.257   0.291   0.256   0.282   0.227   0.233   0.237   0.239   0.254   0.242   0.243   0.292   0.331   0.254   0.269   0.250   0.222   0.292   0.241   0.249   0.252   0.302   0.257   0.224   0.265   0.315   0.334   0.232   0.277   0.277   0.293   0.286   0.248   0.294   0.243   0.272   0.241   0.256   0.253   0.302   0.237   0.280   0.253
   176.00    0.306   0.289   0.334   0.338   0.223   0.248   0.300   0.293   0.291   0.317   0.337   0.238   0.249   0.287   0.235   0.241   0.283   0.224   0.247   0.228   0.241   0.304   0.204   0.267   0.271   0.279   0.295   0.228   0.268   0.278   0.267   0.258   0.251   0.283   0.294   0.216   0.282   0.229   0.256   0.257   0.231   0.245   0.221   0.276   0.204   0.255   0.262   0.242   0.230   0.273   0.221   0.313   0.228   0.268   0.253   0.261   0.244   0.238   0.270   0.237   0.274   0.266   0.251   0.305   0.221   0.236   0.249   0.296   0.274   0.303   0.243   0.252   0.281   0.314   0.343   0.207   0.277   0.282   0.224   0.277   0.260   0.248   0.264   0.275   0.314   0.319   0.309   0.241   0.251   0.236   0.235   0.234   0.223   0.295   0.216   0.259   0.263   0.289   0.290   0.258
   171.00    0.308   0.337   0.334   0.297   0.272   0.244   0.307   0.280   0.211   0.254   0.326   0.222   0.254   0.247   0.264   0.220   0.252   0.251   0.252   0.218   0.272   0.243   0.300   0.283   0.222   0.241   0.284   0.251   0.248   0.260   0.271   0.304   0.281   0.233   0.280   0.311   0.219   0.295   0.316   0.209   0.245   0.256   0.242   0.257   0.263   0.281   0.257   0.274   0.323   0.264   0.268   0.318   0.294   0.299   0.210   0.246   0.260   0.243   0.261   0.262   0.294   0.242   0.230   0.251   0.252   0.265   0.321   0.207   0.289   0.221   0.273   0.222   0.270   0.274   0.302   0.269   0.270   0.234   0.264   0.273   0.217   0.240   0.241   0.299   0.312   0.297   0.248   0.269   0.220   0.223   0.272   0.265   0.222   0.269   0.304   0.251   0.272   0.301   0.248   0.254
   166.00    0.304   0.268   0.268   0.260   0.257   0.281   0.261   0.276   0.279   0.290   0.244   0.276   0.317   0.333   0.256   0.243   0.286   0.233   0.226   0.280   0.230   0.262   0.271   0.274   0.212   0.255   0.261   0.231   0.241   0.268   0.263   0.300   0.240   0.222   0.229   0.292   0.236   0.293   0.259   0.253   0.265   0.242   0.227   0.303   0.249   0.279   0.227   0.270   0.278   0.254   0.240   0.228   0.260   0.225   0.257   0.289   0.240   0.294   0.269   0.270   0.283   0.250   0.253   0.269   0.244   0.252   0.248   0.250   0.233   0.265   0.215   0.279   0.210   0.298   0.260   0.263   0.278   0.300   0.221   0.263   0.249   0.326   0.269   0.301   0.258   0.248   0.245   0.262   0.268   0.321   0.264   0.301   0.234   0.260   0.274   0.249   0.243   0.234   0.247   0.247
   161.00    0.259   0.272   0.253   0.257   0.257   0.293   0.234   0.259   0.257   0.245   0.266   0.242   0.218   0.261   0.258   0.262   0.237   0.302   0.334   0.253   0.320   0.338   0.342   0.274   0.299   0.243   0.254   0.267   0.308   0.302   0.278   0.263   0.280   0.282   0.277   0.293   0.282   0.269   0.326   0.223   0.259   0.262   0.314   0.329   0.285   0.270   0.266   0.272   0.218   0.281   0.238   0.261   0.315   0.211   0.244   0.221   0.304   0.314   0.207   0.267   0.282   0.237   0.304   0.242   0.215   0.234   0.268   0.294   0.258   0.290   0.286   0.279   0.294   0.315   0.319   0.243   0.206   0.268   0.294   0.235   0.271   0.280   0.270   0.263   0.258   0.256   0.295   0.244   0.235   0.286   0.287   0.300   0.220   0.232   0.238   0.245   0.238   0.301   0.309   0.248
   156.00    0.280   0.262   0.253   0.237   0.238   0.276   0.235   0.276   0.275   0.303   0.237   0.274   0.283   0.273   0.236   0.245   0.259   0.305   0.340   0.267   0.269   0.307   0.292   0.306   0.226   0.275   0.285   0.346   0.273   0.296   0.291   0.233   0.252   0.282   0.199   0.264   0.251   0.277   0.296   0.281   0.218   0.267   0.238   0.308   0.285   0.254   0.250   0.230   0.275   0.299   0.205   0.294   0.336   0.284   0.242   0.320   0.278   0.289   0.274   0.272   0.238   0.287   0.333   0.214   0.259   0.284   0.272   0.255   0.267   0.255   0.225   0.254   0.277   0.250   0.316   0.204   0.244   0.305   0.219   0.228   0.275   0.279   0.215   0.236   0.295   0.239   0.253   0.250   0.275   0.228   0.248   0.227   0.288   0.220   0.224   0.241   0.242   0.259   0.263   0.224
   151.00    0.243   0.227   0.239   0.233   0.272   0.214   0.255   0.266   0.247   0.276   0.239   0.278   0.203   0.279   0.232   0.277   0.220   0.255   0.293   0.303   0.232   0.266   0.247   0.239   0.314   0.265   0.326   0.322   0.319   0.292   0.316   0.213   0.225   0.250   0.309   0.321   0.236   0.271   0.270   0.248   0.305   0.203   0.273   0.285   0.286   0.243   0.260   0.264   0.253   0.225   0.280   0.288   0.266   0.250   0.272   0.301   0.324   0.257   0.222   0.238   0.229   0.288   0.305   0.234   0.289   0.243   0.262   0.212   0.247   0.293   0.234   0.280   0.249   0.276   0.248   0.293   0.291   0.312   0.277   0.271   0.241   0.235   0.267   0.269   0.260   0.244   0.277   0.256   0.278   0.292   0.305   0.227   0.254   0.242   0.241   0.248   0.271   0.301   0.254   0.275
   146.00    0.235   0.308   0.210   0.259   0.289   0.297   0.278   0.260   0.277   0.220   0.273   0.323   0.322   0.300   0.204   0.227   0.247   0.232   0.286   0.308   0.290   0.290   0.245   0.241   0.282   0.257   0.280   0.292   0.243   0.234   0.239   0.242   0.266   0.267   0.280   0.255   0.235   0.277   0.220   0.255   0.231   0.268   0.316   0.319   0.191   0.249   0.233   0.296   0.233   0.259   0.256   0.267   0.261   0.271   0.305   0.221   0.292   0.265   0.222   0.283   0.290   0.338   0.311   0.263   0.249   0.280   0.321   0.341   0.248   0.277   0.276   0.259   0.317   0.206   0.238   0.240   0.228   0.263   0.230   0.235   0.277   0.227   0.255   0.278   0.310   0.321   0.247   0.304   0.214   0.274   0.278   0.260   0.252   0.272   0.312   0.274   0.265   0.256   0.272   0.243
   141.00    0.286   0.276   0.274   0.310   0.338   0.309   0.244   0.258   0.292   0.255   0.245   0.285   0.318   0.211   0.283   0.286   0.278   0.315   0.322   0.243   0.238   0.256   0.231   0.254   0.298   0.222   0.243   0.300   0.244   0.256   0.304   0.322   0.253   0.222   0.227   0.279   0.327   0.305   0.338   0.252   0.220   0.257   0.236   0.286   0.324   0.304   0.235   0.290   0.261   0.278   0.242   0.328   0.215   0.271   0.238   0.284   0.326   0.218   0.275   0.227   0.262   0.300   0.316   0.304   0.227   0.228   0.253   0.264   0.274   0.244   0.252   0.252   0.269   0.247   0.314   0.244   0.275   0.230   0.298   0.296   0.221   0.256   0.244   0.259   0.283   0.247   0.264   0.290   0.266   0.258   0.320   0.317   0.242   0.262   0.265   0.237   0.262   0.223   0.283   0.259
   136.00    0.235   0.237   0.285   0.323   0.324   0.297   0.269   0.290   0.289   0.265   0.309   0.214   0.262   0.282   0.225   0.238   0.232   0.274   0.244   0.275   0.247   0.253   0.272   0.242   0.273   0.301   0.274   0.271   0.257   0.291   0.264   0.270   0.284   0.301   0.263   0.260   0.323   0.333   0.303   0.269   0.258   0.270   0.318   0.213   0.304   0.259   0.255   0.249   0.322   0.299   0.320   0.323   0.260   0.253   0.296   0.231   0.238   0.249   0.223   0.254   0.268   0.229   0.252   0.274   0.252   0.285   0.222   0.279   0.209   0.249   0.265   0.211   0.272   0.293   0.274   0.278   0.256   0.305   0.262   0.266   0.265   0.289   0.243   0.277   0.269   0.318   0.214   0.232   0.228   0.268   0.268   0.272   0.275   0.271   0.229   0.298   0.213   0.236   0.214   0.287
   131.00    0.247   0.293   0.262   0.266   0.256   0.237   0.246   0.230   0.227   0.281   0.221   0.266   0.228   0.259   0.298   0.205   0.280   0.245   0.272   0.257   0.296   0.272   0.221   0.267   0.309   0.281   0.277   0.276   0.254   0.288   0.269   0.302   0.250   0.320   0.220   0.285   0.248   0.308   0.266   0.230   0.255   0.264   0.236   0.274   0.262   0.250   0.236   0.313   0.330   0.306   0.284   0.331   0.204   0.266   0.246   0.266   0.312   0.302   0.291   0.237   0.245   0.263   0.256   0.285   0.248   0.271   0.232   0.267   0.319   0.214   0.269   0.302   0.203   0.233   0.272   0.216   0.260   0.280   0.253   0.310   0.325   0.206   0.258   0.251   0.304   0.326   0.289   0.289   0.207   0.240   0.268   0.230   0.247   0.280   0.266   0.293   0.329   0.327   0.295   0.311
   126.00    0.235   0.236   0.248   0.232   0.259   0.255   0.302   0.255   0.253   0.230   0.303   0.233   0.316   0.316   0.263   0.333   0.207   0.235   0.262   0.247   0.280   0.308   0.267   0.272   0.309   0.221   0.291   0.271   0.223   0.249   0.256   0.264   0.269   0.238   0.236   0.259   0.230   0.267   0.213   0.259   0.278   0.239   0.238   0.294   0.222   0.272   0.262   0.275   0.291   0.225   0.266   0.238   0.305   0.293   0.220   0.260   0.251   0.302   0.306   0.253   0.227   0.266   0.282   0.230   0.270   0.279   0.241   0.273   0.299   0.218   0.256   0.245   0.245   0.240   0.281   0.270   0.248   0.300   0.215   0.309   0.280   0.282   0.243   0.256   0.249   0.275   0.267   0.232   0.289   0.271   0.314   0.322   0.229   0.307   0.285   0.272   0.303   0.234   0.296   0.256
   121.00    0.259   0.243   0.238   0.245   0.242   0.280   0.287   0.231   0.244   0.274   0.278   0.238   0.297   0.297   0.228   0.305   0.295   0.255   0.254   0.277   0.244   0.316   0.252   0.273   0.251   0.265   0.278   0.209   0.244   0.291   0.271   0.225   0.270   0.309   0.320   0.262   0.231   0.238   0.263   0.292   0.210   0.237   0.232   0.244   0.290   0.210   0.288   0.203   0.259   0.316   0.291   0.285   0.268   0.258   0.241   0.240   0.230   0.259   0.234   0.273   0.267   0.277   0.257   0.306   0.236   0.252   0.222   0.279   0.272   0.310   0.291   0.237   0.286   0.333   0.276   0.241   0.265   0.246   0.284   0.295   0.340   0.194   0.242   0.272   0.234   0.232   0.253   0.264   0.280   0.252   0.279   0.271   0.279   0.341   0.207   0.275   0.282   0.252   0.283   0.246
   116.00    0.246   0.243   0.273   0.243   0.234   0.230   0.235   0.214   0.274   0.281   0.320   0.301   0.286   0.255   0.284   0.269   0.241   0.294   0.329   0.266   0.282   0.283   0.317   0.347   0.220   0.239   0.269   0.290   0.253   0.216   0.242   0.274   0.323   0.325   0.292   0.229   0.244   0.245   0.255   0.261   0.296   0.205   0.297   0.228   0.233   0.283   0.261   0.279   0.240   0.261   0.285   0.234   0.241   0.268   0.297   0.258   0.250   0.261   0.265   0.224   0.243   0.257   0.276   0.254   0.240   0.255   0.258   0.277   0.221   0.296   0.199   0.255   0.275   0.283   0.283   0.257   0.261   0.202   0.236   0.281   0.297   0.272   0.268   0.258   0.300   0.306   0.228   0.227   0.215   0.291   0.213   0.244   0.272   0.291   0.309   0.207   0.259   0.233   0.303   0.205
   111.00    0.253   0.290   0.291   0.209   0.271   0.321   0.220   0.251   0.312   0.299   0.346   0.244   0.244   0.238   0.261   0.282   0.202   0.269   0.271   0.293   0.247   0.281   0.328   0.333   0.325   0.340   0.254   0.245   0.248   0.238   0.245   0.259   0.282   0.276   0.227   0.253   0.305   0.211   0.283   0.226   0.269   0.284   0.306   0.251   0.275   0.204   0.272   0.264   0.240   0.267   0.277   0.246   0.217   0.242   0.300   0.224   0.212   0.282   0.336   0.291   0.223   0.240   0.253   0.252   0.242   0.234   0.254   0.279   0.291   0.309   0.302   0.313   0.199   0.243   0.279   0.265   0.290   0.286   0.320   0.270   0.259   0.243   0.251   0.226   0.282   0.321   0.307   0.243   0.279   0.315   0.274   0.234   0.298   0.213   0.284   0.318   0.253   0.262   0.295   0.282
   106.00    0.282   0.225   0.257   0.245   0.278   0.275   0.269   0.260   0.242   0.278   0.305   0.309   0.297   0.254   0.256   0.281   0.342   0.198   0.237   0.238   0.262   0.275   0.267   0.264   0.264   0.283   0.232   0.228   0.259   0.274   0.338   0.221   0.226   0.251   0.256   0.332   0.281   0.293   0.260   0.293   0.275   0.300   0.248   0.299   0.234   0.275   0.273   0.227   0.255   0.264   0.268   0.272   0.261   0.290   0.304   0.280   0.282   0.303   0.287   0.286   0.279   0.248   0.250   0.262   0.249   0.271   0.223   0.256   0.262   0.247   0.278   0.235   0.280   0.291   0.284   0.309   0.225   0.292   0.271   0.291   0.224   0.292   0.220   0.262   0.302   0.274   0.284   0.310   0.240   0.248   0.281   0.224   0.300   0.251   0.271   0.322   0.235   0.283   0.236   0.277
   101.00    0.243   0.249   0.249   0.257   0.277   0.263   0.212   0.284   0.276   0.222   0.258   0.265   0.221   0.271   0.211   0.272   0.293   0.304   0.245   0.206   0.224   0.314   0.292   0.266   0.305   0.259   0.272   0.316   0.309   0.227   0.276   0.320   0.346   0.268   0.265   0.294   0.254   0.234   0.272   0.239   0.264   0.293   0.229   0.303   0.231   0.243   0.245   0.235   0.276   0.274   0.269   0.231   0.271   0.299   0.307   0.310   0.241   0.242   0.252   0.296   0.253   0.303   0.314   0.237   0.262   0.236   0.286   0.236   0.267   0.263   0.254   0.239   0.281   0.210   0.225   0.266   0.247   0.251   0.281   0.274   0.294   0.262   0.306   0.227   0.302   0.342   0.235   0.277   0.220   0.223   0.277   0.278   0.277   0.256   0.251   0.274   0.307   0.224   0.245   0.250
    96.00    0.288   0.252   0.217   0.243   0.229   0.278   0.277   0.277   0.298   0.215   0.282   0.248   0.269   0.294   0.275   0.279   0.243   0.232   0.245   0.304   0.315   0.345   0.334   0.230   0.290   0.220   0.255   0.262   0.259   0.236   0.227   0.275   0.276   0.276   0.307   0.271   0.273   0.275   0.272   0.237   0.227   0.265   0.244   0.235   0.309   0.288   0.254   0.224   0.273   0.248   0.255   0.244   0.282   0.274   0.282   0.275   0.204   0.247   0.274   0.288   0.219   0.276   0.281   0.297   0.282   0.308   0.194   0.244   0.274   0.225   0.262   0.287   0.217   0.303   0.327   0.329   0.304   0.275   0.247   0.309   0.243   0.274   0.254   0.251   0.253   0.294   0.293   0.263   0.261   0.294   0.326   0.226   0.275   0.255   0.325   0.280   0.283   0.223   0.260   0.282
    91.00    0.237   0.299   0.235   0.321   0.211   0.245   0.248   0.288   0.227   0.288   0.312   0.229   0.240   0.248   0.242   0.273   0.298   0.234   0.271   0.248   0.271   0.306   0.305   0.240   0.306   0.276   0.241   0.243   0.279   0.262   0.249   0.281   0.268   0.254   0.245   0.266   0.294   0.304   0.221   0.256   0.211   0.244   0.302   0.295   0.234   0.286   0.295   0.214   0.244   0.262   0.248   0.303   0.217   0.256   0.247   0.240   0.310   0.296   0.223   0.309   0.230   0.275   0.268   0.241   0.242   0.304   0.289   0.260   0.298   0.250   0.277   0.225   0.286   0.302   0.273   0.290   0.334   0.201   0.255   0.246   0.270   0.261   0.259   0.272   0.292   0.260   0.320   0.247   0.277   0.222   0.273   0.260   0.322   0.212   0.288   0.326   0.230   0.232   0.299   0.226
    86.00    0.255   0.303   0.320   0.279   0.268   0.291   0.269   0.231   0.223   0.280   0.292   0.234   0.275   0.271   0.239   0.228   0.276   0.244   0.232   0.247   0.222   0.263   0.251   0.273   0.282   0.313   0.257   0.228   0.294   0.266   0.263   0.213   0.265   0.261   0.227   0.279   0.241   0.279   0.275   0.254   0.232   0.260   0.266   0.241   0.223   0.301   0.296   0.245   0.245   0.250   0.271   0.248   0.264   0.282   0.227   0.263   0.251   0.296   0.270   0.315   0.226   0.292   0.257   0.268   0.303   0.346   0.192   0.253   0.252   0.225   0.245   0.223   0.257   0.253   0.233   0.257   0.289   0.254   0.272   0.222   0.299   0.259   0.208   0.275   0.262   0.257   0.311   0.219   0.267   0.310   0.224   0.250   0.258   0.315   0.203   0.272   0.289   0.268   0.245   0.288
    81.00    0.292   0.302   0.312   0.253   0.267   0.284   0.227   0.303   0.314   0.270   0.249   0.218   0.272   0.336   0.350   0.215   0.249   0.292   0.276   0.233   0.226   0.260   0.232   0.256   0.289   0.311   0.206   0.259   0.304   0.214   0.234   0.258   0.302   0.326   0.310   0.261   0.252   0.253   0.248   0.231   0.282   0.305   0.249   0.287   0.331   0.333   0.274   0.262   0.266   0.266   0.304   0.214   0.265   0.262   0.264   0.254   0.259   0.255   0.260   0.270   0.281   0.248   0.217   0.244   0.269   0.298   0.321   0.253   0.258   0.252   0.295   0.270   0.301   0.212   0.281   0.223   0.242   0.283   0.231   0.261   0.271   0.329   0.316   0.262   0.258   0.268   0.331   0.195   0.248   0.261   0.268   0.224   0.239   0.287   0.301   0.312   0.293   0.223   0.262   0.232
    76.00    0.255   0.256   0.251   0.253   0.256   0.218   0.236   0.251   0.298   0.229   0.314   0.249   0.268   0.309   0.310   0.263   0.249   0.259   0.229   0.247   0.236   0.231   0.262   0.268   0.234   0.304   0.227   0.277   0.264   0.249   0.265   0.287   0.272   0.285   0.273   0.270   0.318   0.243   0.218   0.225   0.265   0.272   0.261   0.272   0.318   0.276   0.260   0.232   0.283   0.277   0.268   0.253   0.255   0.251   0.272   0.230   0.268   0.236   0.238   0.244   0.286   0.267   0.312   0.280   0.287   0.220   0.296   0.309   0.246   0.238   0.245   0.240   0.257   0.233   0.233   0.245   0.290   0.229   0.259   0.215   0.238   0.264   0.257   0.237   0.259   0.300   0.262   0.323   0.283   0.283   0.237   0.277   0.248   0.236   0.229   0.271   0.221   0.285   0.246   0.243
    71.00    0.307   0.225   0.246   0.280   0.218   0.287   0.238   0.236   0.263   0.239   0.296   0.227   0.243   0.251   0.248   0.288   0.267   0.247   0.265   0.228   0.266   0.277   0.242   0.249   0.249   0.256   0.301   0.239   0.213   0.256   0.253   0.237   0.285   0.328   0.225   0.269   0.320   0.222   0.306   0.334   0.324   0.226   0.279   0.262   0.326   0.208   0.273   0.219   0.238   0.290   0.271   0.248   0.290   0.271   0.233   0.246   0.257   0.254   0.265   0.271   0.256   0.231   0.253   0.270   0.231   0.218   0.237   0.271   0.309   0.314   0.225   0.224   0.242   0.239   0.296   0.298   0.292   0.246   0.275   0.267   0.270   0.273   0.281   0.250   0.305   0.251   0.235   0.279   0.329   0.323   0.301   0.226   0.268   0.305   0.272   0.275   0.265   0.222   0.268   0.304
    66.00    0.302   0.339   0.227   0.255   0.263   0.249   0.214   0.271   0.239   0.272   0.239   0.327   0.256   0.228   0.231   0.296   0.337   0.219   0.231   0.266   0.233   0.275   0.311   0.249   0.277   0.306   0.243   0.277   0.312   0.198   0.275   0.303   0.254   0.292   0.302   0.218   0.278   0.278   0.321   0.304   0.262   0.258   0.293   0.255   0.250   0.277   0.267   0.253   0.240   0.243   0.232   0.240   0.272   0.245   0.246   0.224   0.233   0.271   0.324   0.203   0.263   0.227   0.274   0.259   0.310   0.331   0.343   0.291   0.286   0.224   0.288   0.296   0.329   0.313   0.211   0.254   0.204   0.285   0.236   0.238   0.243   0.290   0.246   0.271   0.275   0.269   0.225   0.296   0.283   0.267   0.281   0.277   0.296   0.307   0.252   0.272   0.213   0.268   0.276   0.281
    61.00    0.300   0.320   0.261   0.260   0.244   0.217   0.281   0.286   0.262   0.228   0.247   0.281   0.299   0.306   0.293   0.274   0.277   0.274   0.254   0.284   0.276   0.263   0.252   0.275   0.309   0.253   0.287   0.327   0.226   0.277   0.265   0.241   0.283   0.244   0.303   0.256   0.264   0.276   0.259   0.256   0.266   0.245   0.253   0.264   0.299   0.278   0.300   0.226   0.282   0.273   0.285   0.231   0.229   0.305   0.308   0.229   0.292   0.282   0.233   0.259   0.232   0.303   0.214   0.248   0.259   0.309   0.301   0.252   0.263   0.268   0.281   0.264   0.290   0.318   0.259   0.255   0.313   0.338   0.202   0.278   0.269   0.284   0.216   0.222   0.267   0.329   0.323   0.240   0.260   0.218   0.252   0.303   0.203   0.257   0.250   0.310   0.309   0.279   0.246   0.223
    56.00    0.269   0.300   0.243   0.278   0.226   0.248   0.249   0.269   0.268   0.293   0.317   0.326   0.240   0.263   0.243   0.215   0.281   0.245   0.243   0.236   0.274   0.250   0.281   0.267   0.279   0.247   0.219   0.232   0.260   0.218   0.275   0.227   0.276   0.224   0.294   0.214   0.244   0.240   0.272   0.237   0.287   0.254   0.271   0.263   0.263   0.261   0.281   0.315   0.226   0.247   0.246   0.277   0.248   0.232   0.292   0.312   0.281   0.262   0.295   0.239   0.304   0.314   0.236   0.291   0.222   0.283   0.236   0.242   0.302   0.276   0.217   0.244   0.255   0.279   0.250   0.252   0.291   0.320   0.268   0.268   0.245   0.236   0.255   0.283   0.306   0.316   0.322   0.208   0.271   0.273   0.270   0.237   0.262   0.314   0.202   0.269   0.289   0.242   0.269   0.291
    51.00    0.220   0.268   0.305   0.292   0.236   0.237   0.237   0.235   0.272   0.309   0.281   0.259   0.224   0.292   0.219   0.273   0.295   0.219   0.265   0.238   0.257   0.251   0.258   0.263   0.241   0.224   0.276   0.337   0.319   0.280   0.199   0.243   0.251   0.261   0.221   0.315   0.297   0.216   0.244   0.241   0.259   0.205   0.245   0.257   0.246   0.276   0.253   0.287   0.230   0.275   0.212   0.258   0.236   0.255   0.253   0.297   0.271   0.276   0.278   0.227   0.295   0.254   0.246   0.269   0.309   0.239   0.257   0.298   0.324   0.249   0.283   0.239   0.237   0.237   0.226   0.225   0.274   0.323   0.328   0.278   0.281   0.294   0.315   0.212   0.257   0.256   0.265   0.293   0.277   0.219   0.268   0.309   0.242   0.235   0.287   0.295   0.237   0.262   0.237   0.261
    46.00    0.297   0.290   0.288   0.248   0.250   0.259   0.287   0.262   0.293   0.303   0.234   0.274   0.246   0.271   0.289   0.266   0.244   0.265   0.255   0.295   0.206   0.247   0.297   0.251   0.231   0.241   0.301   0.313   0.321   0.243   0.292   0.304   0.224   0.261   0.304   0.272   0.311   0.256   0.283   0.251   0.266   0.281   0.343   0.194   0.259   0.264   0.274   0.306   0.242   0.278   0.263   0.270   0.303   0.224   0.260   0.266   0.267   0.272   0.220   0.226   0.280   0.294   0.252   0.269   0.266   0.263   0.289   0.246   0.234   0.261   0.221   0.268   0.253   0.254   0.258   0.251   0.230   0.249   0.290   0.216   0.261   0.276   0.285   0.304   0.209   0.224   0.238   0.293   0.221   0.242   0.249   0.271   0.280   0.256   0.208   0.279   0.211   0.273   0.238   0.238
    41.00    0.283   0.277   0.209   0.237   0.266   0.235   0.242   0.271   0.234   0.305   0.229   0.256   0.256   0.229   0.273   0.292   0.228   0.266   0.217   0.236   0.271   0.290   0.258   0.218   0.245   0.268   0.234   0.287   0.289   0.252   0.240   0.272   0.221   0.269   0.286   0.214   0.282   0.305   0.220   0.280   0.220   0.286   0.300   0.341   0.340   0.291   0.227   0.231   0.267   0.280   0.219   0.273   0.267   0.268   0.256   0.238   0.236   0.258   0.245   0.262   0.283   0.286   0.266   0.308   0.291   0.293   0.297   0.213   0.243   0.275   0.262   0.256   0.274   0.240   0.280   0.241   0.224   0.272   0.295   0.274   0.250   0.279   0.211   0.260   0.274   0.238   0.297   0.303   0.302   0.300   0.333   0.293   0.235   0.264   0.254   0.293   0.258   0.260   0.259   0.264
    36.00    0.229   0.247   0.281   0.275   0.245   0.225   0.267   0.256   0.287   0.326   0.206   0.252   0.306   0.263   0.277   0.309   0.289   0.223   0.302   0.231   0.247   0.215   0.259   0.293   0.264   0.285   0.280   0.264   0.223   0.249   0.220   0.271   0.278   0.320   0.326   0.245   0.311   0.234   0.263   0.264   0.255   0.247   0.245   0.292   0.306   0.267   0.236   0.291   0.275   0.216   0.261   0.226   0.225   0.285   0.220   0.228   0.270   0.247   0.229   0.257   0.240   0.264   0.253   0.228   0.286   0.236   0.233   0.271   0.248   0.233   0.227   0.262   0.288   0.312   0.233   0.261   0.302   0.275   0.293   0.289   0.201   0.235   0.283   0.247   0.248   0.240   0.270   0.260   0.282   0.324   0.278   0.272   0.267   0.244   0.292   0.238   0.280   0.245   0.253   0.262
    31.00    0.288   0.327   0.210   0.252   0.230   0.246   0.268   0.225   0.287   0.314   0.296   0.234   0.322   0.272   0.277   0.253   0.240   0.281   0.330   0.211   0.283   0.291   0.279   0.205   0.239   0.249   0.271   0.275   0.320   0.215   0.238   0.271   0.221   0.246   0.264   0.248   0.243   0.259   0.250   0.222   0.293   0.316   0.242   0.272   0.285   0.298   0.269   0.263   0.268   0.282   0.247   0.277   0.253   0.261   0.259   0.252   0.275   0.267   0.249   0.252   0.206   0.257   0.242   0.269   0.233   0.252   0.255   0.258   0.241   0.281   0.321   0.259   0.256   0.300   0.285   0.225   0.283   0.240   0.267   0.248   0.262   0.289   0.264   0.230   0.261   0.234   0.276   0.249   0.301   0.310   0.213   0.262   0.251   0.292   0.306   0.214   0.259   0.280   0.233   0.267
    26.00    0.234   0.249   0.246   0.236   0.253   0.243   0.249   0.252   0.239   0.310   0.226   0.252   0.262   0.256   0.257   0.242   0.296   0.327   0.312   0.305   0.282   0.257   0.240   0.267   0.293   0.264   0.206   0.257   0.228   0.281   0.208   0.246   0.259   0.300   0.255   0.278   0.289   0.266   0.265   0.220   0.269   0.270   0.272   0.310   0.239   0.265   0.265   0.219   0.273   0.279   0.254   0.276   0.251   0.230   0.277   0.203   0.285   0.230   0.238   0.267   0.279   0.225   0.265   0.341   0.264   0.252   0.232   0.254   0.225   0.259   0.314   0.226   0.252   0.233   0.268   0.299   0.309   0.204   0.247   0.224   0.294   0.273   0.284   0.210   0.229   0.230   0.250   0.289   0.280   0.226   0.281   0.237   0.308   0.254   0.273   0.268   0.226   0.233   0.274   0.205
    21.00    0.290   0.227   0.209   0.250   0.305   0.241   0.255   0.205   0.243   0.279   0.319   0.222   0.230   0.236   0.285   0.271   0.275   0.289   0.253   0.313   0.255   0.217   0.266   0.222   0.268   0.294   0.319   0.305   0.295   0.250   0.279   0.315   0.316   0.289   0.248   0.273   0.259   0.230   0.240   0.261   0.251   0.259   0.230   0.304   0.282   0.295   0.248   0.319   0.308   0.278   0.228   0.268   0.211   0.234   0.268   0.312   0.297   0.226   0.239   0.252   0.271   0.331   0.297   0.275   0.318   0.321   0.214   0.263   0.254   0.238   0.288   0.287   0.252   0.244   0.240   0.285   0.221   0.283   0.222   0.241   0.266   0.267   0.289   0.283   0.253   0.260   0.247   0.310   0.226   0.229   0.238   0.260   0.273   0.315   0.215   0.245   0.228   0.296   0.286   0.284
    16.00    0.235   0.247   0.273   0.316   0.322   0.246   0.244   0.258   0.283   0.217   0.298   0.269   0.269   0.268   0.292   0.266   0.219   0.216   0.274   0.259   0.286   0.325   0.197   0.241   0.270   0.288   0.231   0.244   0.278   0.256   0.295   0.265   0.322   0.238   0.274   0.279   0.291   0.207   0.283   0.213   0.225   0.269   0.277   0.309   0.288   0.325   0.348   0.338   0.260   0.237   0.302   0.213   0.279   0.255   0.269   0.300   0.209   0.278   0.228   0.263   0.263   0.260   0.252   0.268   0.304   0.277   0.272   0.275   0.267   0.308   0.244   0.278   0.309   0.256   0.302   0.260   0.311   0.232   0.243   0.288   0.263   0.227   0.246   0.232   0.292   0.225   0.302   0.280   0.303   0.338   0.314   0.279   0.274   0.280   0.241   0.321   0.223   0.279   0.243   0.237
    11.00    0.267   0.269   0.265   0.254   0.274   0.257   0.296   0.227   0.263   0.237   0.288   0.297   0.230   0.283   0.259   0.238   0.279   0.296   0.284   0.283   0.229   0.289   0.299   0.258   0.270   0.272   0.234   0.276   0.258   0.248   0.261   0.242   0.279   0.279   0.294   0.252   0.274   0.284   0.268   0.300   0.286   0.251   0.268   0.237   0.253   0.269   0.295   0.297   0.286   0.248   0.292   0.301   0.259   0.234   0.251   0.234   0.288   0.270   0.233   0.244   0.236   0.290   0.273   0.278   0.250   0.292   0.244   0.259   0.290   0.269   0.249   0.269   0.290   0.304   0.271   0.298   0.302   0.273   0.233   0.248   0.283   0.302   0.243   0.237   0.289   0.293   0.293   0.304   0.301   0.306   0.302   0.244   0.245   0.277   0.261   0.265   0.289   0.299   0.279   0.235

   Height   Standard deviation at grid points for the w component:
   181.00    0.214   0.252   0.190   0.269   0.276   0.284   0.202   0.253   0.304   0.306   0.277   0.240   0.232   0.234   0.236   0.276   0.235   0.221   0.228   0.216   0.255   0.242   0.222   0.218   0.258   0.240   0.235   0.251   0.237   0.256   0.260   0.243   0.258   0.214   0.254   0.214   0.239   0.226   0.271   0.246   0.204   0.241   0.239   0.248   0.202   0.221   0.230   0.266   0.256   0.227   0.263   0.228   0.260   0.222   0.271   0.257   0.232   0.268   0.251   0.237   0.220   0.229   0.261   0.274   0.205   0.260   0.196   0.219   0.223   0.290   0.192   0.265   0.308   0.185   0.219   0.242   0.242   0.265   0.200   0.250   0.245   0.238   0.222   0.243   0.289   0.188   0.228   0.267   0.275   0.301   0.222   0.227   0.218   0.206   0.245   0.226   0.263   0.252   0.283   0.286
   176.00    0.254   0.260   0.283   0.295   0.232   0.235   0.290   0.279   0.308   0.306   0.204   0.254   0.206   0.211   0.213   0.226   0.216   0.266   0.195   0.227   0.238   0.249   0.198   0.233   0.288   0.191   0.232   0.279   0.201   0.259   0.206   0.271   0.197   0.234   0.240   0.203   0.228   0.211   0.259   0.287   0.234   0.273   0.224   0.249   0.251   0.214   0.209   0.229   0.243   0.225   0.280   0.290   0.253   0.230   0.238   0.204   0.209   0.258   0.191   0.252   0.223   0.209   0.247   0.247   0.278   0.309   0.309   0.197   0.265   0.296   0.274   0.264   0.245   0.240   0.262   0.234   0.234   0.265   0.274   0.218   0.256   0.238   0.298   0.190   0.231   0.278   0.265   0.211   0.198   0.253   0.292   0.233   0.248   0.229   0.259   0.204   0.225   0.196   0.250   0.266
   171.00    0.202   0.274   0.210   0.256   0.234   0.223   0.247   0.258   0.248   0.246   0.240   0.279   0.289   0.231   0.234   0.245   0.208   0.238   0.254   0.259   0.239   0.249   0.272   0.205   0.236   0.274   0.209   0.212   0.236   0.215   0.249   0.306   0.290   0.226   0.223   0.256   0.268   0.250   0.291   0.287   0.223   0.258   0.206   0.213   0.241   0.207   0.248   0.261   0.285   0.205   0.239   0.246   0.197   0.216   0.206   0.259   0.211   0.268   0.308   0.289   0.266   0.226   0.262   0.224   0.238   0.283   0.288   0.231   0.282   0.304   0.244   0.227   0.235   0.256   0.256   0.220   0.213   0.262   0.232   0.207   0.241   0.227   0.265   0.255   0.255   0.252   0.208   0.240   0.293   0.249   0.211   0.245   0.257   0.276   0.231   0.267   0.255   0.210   0.230   0.220
   166.00    0.279   0.302   0.269   0.290   0.182   0.268   0.209   0.236   0.191   0.212   0.254   0.223   0.255   0.211   0.237   0.243   0.192   0.220   0.232   0.229   0.283   0.304   0.212   0.256   0.259   0.201   0.244   0.208   0.259   0.201   0.237   0.296   0.322   0.194   0.269   0.202   0.227   0.232   0.260   0.243   0.239   0.208   0.229   0.203   0.246   0.229   0.214   0.249   0.237   0.247   0.196   0.243   0.217   0.257   0.286   0.208   0.207   0.245   0.261   0.249   0.260   0.231   0.225   0.239   0.225   0.233   0.290   0.279   0.276   0.289   0.217   0.287   0.239   0.223   0.271   0.209   0.234   0.237   0.289   0.222   0.260   0.191   0.225   0.222   0.214   0.253   0.273   0.231   0.263   0.281   0.208   0.237   0.270   0.236   0.209   0.215   0.247   0.288   0.288   0.215
   161.00    0.269   0.295   0.255   0.289   0.269   0.275   0.252   0.222   0.250   0.285   0.256   0.265   0.224   0.231   0.263   0.231   0.227   0.239   0.269   0.225   0.242   0.278   0.292   0.217   0.244   0.297   0.190   0.231   0.194   0.238   0.248   0.269   0.298   0.291   0.226   0.238   0.223   0.253   0.258   0.235   0.258   0.216   0.229   0.257   0.213   0.222   0.211   0.247   0.207   0.254   0.263   0.245   0.213   0.218   0.245   0.204   0.225   0.238   0.255   0.257   0.215   0.247   0.217   0.196   0.211   0.269   0.311   0.277   0.217   0.221   0.278   0.211   0.278   0.280   0.202   0.221   0.207   0.209   0.249   0.227   0.236   0.216   0.237   0.205   0.215   0.268   0.279   0.233   0.221   0.219   0.238   0.257   0.240   0.216   0.235   0.250   0.252   0.285   0.291   0.199
   156.00    0.223   0.237   0.245   0.244   0.219   0.217   0.249   0.192   0.250   0.230   0.286   0.236   0.243   0.194   0.245   0.232   0.246   0.297   0.212   0.243   0.204   0.248   0.229   0.277   0.274   0.240   0.253   0.234   0.266   0.284   0.246   0.213   0.261   0.255   0.224   0.255   0.264   0.295   0.213   0.225   0.206   0.222   0.270   0.204   0.218   0.222   0.233   0.230   0.203   0.250   0.247   0.202   0.262   0.263   0.262   0.244   0.290   0.216   0.276   0.271   0.211   0.253   0.234   0.274   0.289   0.280   0.279   0.273   0.207   0.237   0.218   0.258   0.248   0.255   0.233   0.254   0.262   0.298   0.309   0.207   0.236   0.223   0.272   0.242   0.239   0.265   0.225   0.233   0.236   0.218   0.220   0.265   0.235   0.237   0.219   0.206   0.245   0.267   0.232   0.257
   151.00    0.222   0.231   0.200   0.253   0.224   0.240   0.222   0.238   0.235   0.265   0.232   0.238   0.249   0.244   0.246   0.200   0.246   0.275   0.215   0.266   0.243   0.215   0.253   0.266   0.214   0.240   0.244   0.225   0.275   0.290   0.245   0.212   0.245   0.216   0.272   0.301   0.309   0.269   0.210   0.237   0.243   0.255   0.241   0.202   0.236   0.228   0.218   0.230   0.254   0.213   0.252   0.268   0.197   0.255   0.222   0.265   0.258   0.250   0.275   0.245   0.193   0.253   0.239   0.288   0.239   0.245   0.298   0.236   0.287   0.252   0.241   0.259   0.222   0.260   0.207   0.244   0.213   0.263   0.266   0.276   0.267   0.275   0.201   0.271   0.212   0.234   0.228   0.260   0.252   0.196   0.258   0.204   0.244   0.208   0.250   0.224   0.236   0.235   0.238   0.217
   146.00    0.250   0.216   0.263   0.269   0.255   0.215   0.234   0.285   0.234   0.276   0.280   0.229   0.215   0.267   0.217   0.240   0.243   0.192   0.240   0.217   0.229   0.222   0.272   0.237   0.226   0.228   0.232   0.229   0.195   0.253   0.219   0.203   0.243   0.284   0.241   0.254   0.269   0.285   0.226   0.212   0.254   0.255   0.256   0.244   0.241   0.233   0.205   0.244   0.300   0.280   0.238   0.274   0.256   0.213   0.226   0.257   0.285   0.217   0.231   0.209   0.250   0.278   0.225   0.235   0.216   0.254   0.257   0.236   0.244   0.272   0.190   0.256   0.219   0.241   0.250   0.250   0.244   0.219   0.221   0.216   0.221   0.236   0.216   0.257   0.235   0.222   0.206   0.234   0.255   0.276   0.270   0.201   0.219   0.254   0.282   0.241   0.235   0.289   0.214   0.229
   141.00    0.261   0.223   0.227   0.244   0.213   0.273   0.205   0.270   0.251   0.263   0.251   0.236   0.266   0.285   0.261   0.278   0.199   0.235   0.253   0.267   0.235   0.236   0.204   0.226   0.216   0.221   0.250   0.209   0.226   0.267   0.261   0.258   0.227   0.246   0.241   0.237   0.250   0.239   0.240   0.233   0.260   0.215   0.197   0.249   0.213   0.202   0.235   0.225   0.261   0.272   0.232   0.266   0.246   0.226   0.192   0.196   0.250   0.265   0.266   0.237   0.223   0.254   0.244   0.279   0.219   0.269   0.229   0.273   0.280   0.241   0.289   0.274   0.203   0.229   0.234   0.195   0.230   0.201   0.222   0.224   0.225   0.245   0.217   0.217   0.251   0.239   0.249   0.208   0.243   0.288   0.223   0.234   0.223   0.236   0.259   0.225   0.276   0.266   0.203   0.211
   136.00    0.222   0.207   0.247   0.252   0.230   0.232   0.266   0.196   0.244   0.223   0.269   0.214   0.251   0.289   0.206   0.253   0.256   0.205   0.253   0.208   0.240   0.244   0.248   0.202   0.263   0.273   0.233   0.193   0.261   0.253   0.264   0.233   0.236   0.211   0.237   0.230   0.241   0.240   0.231   0.213   0.246   0.255   0.284   0.248   0.253   0.245   0.228   0.220   0.244   0.257   0.197   0.250   0.222   0.239   0.284   0.304   0.290   0.213   0.209   0.217   0.259   0.230   0.227   0.263   0.267   0.241   0.214   0.225   0.232   0.223   0.255   0.224   0.217   0.217   0.255   0.216   0.223   0.237   0.251   0.223   0.281   0.193   0.246   0.238   0.229   0.206   0.242   0.259   0.231   0.283   0.202   0.221   0.267   0.257   0.230   0.215   0.258   0.242   0.262   0.237
   131.00    0.234   0.270   0.259   0.240   0.227   0.218   0.237   0.271   0.275   0.251   0.214   0.243   0.191   0.249   0.278   0.195   0.263   0.214   0.282   0.246   0.235   0.204   0.236   0.217   0.266   0.235   0.242   0.240   0.260   0.234   0.209   0.221   0.229   0.260   0.206   0.231   0.205   0.229   0.271   0.209   0.236   0.249   0.240   0.271   0.251   0.281   0.234   0.252   0.256   0.207   0.232   0.232   0.234   0.210   0.259   0.287   0.271   0.252   0.203   0.215   0.262   0.205   0.254   0.260   0.291   0.223   0.241   0.208   0.243   0.225   0.249   0.226   0.243   0.225   0.226   0.221   0.239   0.230   0.251   0.215   0.233   0.236   0.240   0.207   0.263   0.216   0.268   0.218   0.238   0.238   0.214   0.249   0.196   0.240   0.205   0.218   0.247   0.206   0.243   0.224
   126.00    0.269   0.229   0.204   0.226   0.224   0.226   0.256   0.247   0.283   0.252   0.240   0.208   0.257   0.271   0.239   0.232   0.260   0.212   0.240   0.242   0.225   0.233   0.249   0.238   0.216   0.217   0.213   0.257   0.216   0.243   0.244   0.275   0.252   0.214   0.231   0.233   0.255   0.238   0.259   0.207   0.256   0.212   0.253   0.291   0.223   0.242   0.258   0.260   0.247   0.263   0.216   0.222   0.212   0.223   0.236   0.252   0.253   0.223   0.228   0.260   0.239   0.280   0.203   0.261   0.255   0.260   0.289   0.203   0.258   0.222   0.254   0.241   0.258   0.195   0.250   0.213   0.258   0.233   0.240   0.239   0.239   0.236   0.262   0.194   0.240   0.249   0.246   0.222   0.226   0.229   0.261   0.289   0.245   0.227   0.213   0.239   0.227   0.233   0.253   0.263
   121.00    0.256   0.266   0.287   0.210   0.257   0.242   0.246   0.243   0.254   0.199   0.218   0.263   0.244   0.215   0.251   0.263   0.253   0.238   0.225   0.199   0.257   0.269   0.214   0.229   0.239   0.249   0.271   0.287   0.199   0.230   0.273   0.234   0.218   0.269   0.281   0.212   0.243   0.275   0.253   0.223   0.248   0.271   0.282   0.287   0.226   0.217   0.251   0.199   0.226   0.229   0.265   0.219   0.202   0.238   0.202   0.218   0.241   0.228   0.238   0.227   0.290   0.277   0.206   0.244   0.262   0.259   0.250   0.240   0.207   0.208   0.266   0.238   0.212   0.252   0.228   0.222   0.264   0.243   0.205   0.254   0.229   0.209   0.230   0.260   0.223   0.239   0.241   0.240   0.253   0.216   0.242   0.275   0.281   0.237   0.217   0.248   0.201   0.260   0.277   0.257
   116.00    0.260   0.192   0.242   0.288   0.236   0.215   0.232   0.272   0.197   0.254   0.255   0.225   0.242   0.249   0.227   0.247   0.256   0.269   0.194   0.234   0.225   0.201   0.233   0.252   0.204   0.260   0.222   0.276   0.288   0.226   0.276   0.229   0.223   0.204   0.266   0.254   0.212   0.255   0.276   0.212   0.199   0.226   0.238   0.232   0.195   0.234   0.207   0.245   0.252   0.209   0.253   0.282   0.292   0.256   0.209   0.281   0.212   0.238   0.254   0.216   0.278   0.217   0.243   0.237   0.261   0.247   0.214   0.215   0.243   0.262   0.299   0.278   0.236   0.265   0.221   0.225   0.254   0.235   0.247   0.245   0.246   0.282   0.249   0.216   0.224   0.244   0.222   0.228   0.206   0.247   0.224   0.256   0.260   0.228   0.210   0.219   0.252   0.208   0.225   0.232
   111.00    0.244   0.217   0.236   0.240   0.248   0.258   0.283   0.203   0.253   0.213   0.258   0.265   0.230   0.202   0.267   0.259   0.214   0.238   0.276   0.201   0.229   0.258   0.237   0.237   0.265   0.217   0.233   0.245   0.291   0.240   0.275   0.225   0.279   0.285   0.275   0.283   0.243   0.271   0.271   0.285   0.231   0.261   0.244   0.244   0.255   0.268   0.280   0.204   0.259   0.225   0.222   0.231   0.233   0.246   0.245   0.235   0.280   0.245   0.213   0.265   0.245   0.283   0.288   0.211   0.195   0.240   0.229   0.213   0.284   0.300   0.300   0.284   0.276   0.224   0.253   0.223   0.236   0.245   0.282   0.290   0.205   0.274   0.181   0.211   0.234   0.265   0.281   0.259   0.297   0.302   0.186   0.218   0.218   0.242   0.218   0.238   0.251   0.251   0.255   0.250
   106.00    0.275   0.221   0.231   0.245   0.238   0.240   0.273   0.248   0.237   0.223   0.265   0.203   0.219   0.261   0.249   0.257   0.245   0.259   0.212   0.246   0.272   0.277   0.203   0.260   0.304   0.201   0.229   0.237   0.273   0.204   0.236   0.209   0.242   0.261   0.215   0.225   0.257   0.209   0.256   0.278   0.203   0.216   0.219   0.266   0.293   0.206   0.227   0.264   0.196   0.232   0.248   0.191   0.236   0.215   0.243   0.271   0.270   0.255   0.231   0.245   0.261   0.274   0.288   0.214   0.245   0.294   0.213   0.206   0.244   0.249   0.276   0.215   0.250   0.220   0.268   0.227   0.217   0.232   0.269   0.278   0.263   0.236   0.262   0.300   0.302   0.226   0.239   0.259   0.279   0.264   0.287   0.243   0.259   0.234   0.226   0.240   0.216   0.212   0.213   0.245
   101.00    0.259   0.279   0.234   0.237   0.289   0.211   0.263   0.267   0.222   0.214   0.243   0.277   0.227   0.252   0.230   0.209   0.215   0.248   0.211   0.261   0.259   0.233   0.261   0.273   0.264   0.278   0.212   0.223   0.267   0.273   0.292   0.257   0.263   0.216   0.251   0.190   0.266   0.253   0.245   0.246   0.238   0.288   0.195   0.225   0.247   0.284   0.268   0.195   0.225   0.227   0.241   0.266   0.282   0.228   0.251   0.243   0.263   0.221   0.262   0.207   0.263   0.277   0.255   0.206   0.210   0.226   0.259   0.249   0.268   0.202   0.212   0.223   0.247   0.230   0.229   0.242   0.238   0.252   0.211   0.249   0.229   0.266   0.215   0.289   0.296   0.177   0.240   0.250   0.264   0.216   0.243   0.213   0.201   0.221   0.204   0.240   0.216   0.242   0.260   0.288
    96.00    0.207   0.239   0.271   0.283   0.301   0.305   0.195   0.274   0.204   0.263   0.207   0.216   0.236   0.271   0.277   0.234   0.283   0.230   0.258   0.271   0.226   0.217   0.272   0.238   0.225   0.254   0.212   0.221   0.275   0.280   0.290   0.211   0.237   0.241   0.238   0.254   0.266   0.274   0.193   0.275   0.197   0.234   0.255   0.240   0.218   0.270   0.295   0.199   0.266   0.290   0.288   0.266   0.242   0.259   0.238   0.224   0.248   0.234   0.295   0.223   0.253   0.277   0.268   0.238   0.219   0.257   0.205   0.222   0.238   0.259   0.210   0.264   0.262   0.214   0.255   0.233   0.220   0.207   0.265   0.266   0.228   0.262   0.287   0.309   0.273   0.263   0.275   0.215   0.204   0.247   0.211   0.262   0.233   0.244   0.215   0.245   0.228   0.204   0.239   0.239
    91.00    0.270   0.243   0.230   0.273   0.261   0.271   0.230   0.220   0.237   0.232   0.266   0.206   0.230   0.220   0.225   0.231   0.257   0.215   0.236   0.267   0.238   0.229   0.280   0.220   0.228   0.205   0.232   0.215   0.225   0.285   0.303   0.184   0.239   0.277   0.223   0.227   0.268   0.203   0.230   0.269   0.256   0.262   0.195   0.244   0.246   0.289   0.270   0.267   0.263   0.250   0.244   0.214   0.243   0.256   0.211   0.256   0.218   0.211   0.225   0.235   0.220   0.226   0.220   0.241   0.297   0.209   0.213   0.227   0.230   0.216   0.215   0.245   0.252   0.231   0.229   0.238   0.232   0.284   0.244   0.252   0.215   0.214   0.278   0.309   0.231   0.209   0.231   0.210   0.216   0.240   0.233   0.237   0.277   0.219   0.192   0.256   0.210   0.246   0.249   0.231
    86.00    0.279   0.230   0.245   0.249   0.274   0.230   0.280   0.219   0.227   0.283   0.225   0.270   0.224   0.260   0.232   0.205   0.212   0.235   0.221   0.245   0.232   0.217   0.247   0.210   0.231   0.212   0.256   0.207   0.279   0.298   0.233   0.285   0.269   0.248   0.219   0.284   0.301   0.289   0.261   0.251   0.228   0.194   0.259   0.275   0.206   0.226   0.262   0.279   0.202   0.223   0.229   0.206   0.242   0.257   0.216   0.221   0.215   0.243   0.286   0.252   0.243   0.278   0.225   0.244   0.259   0.261   0.202   0.216   0.241   0.198   0.251   0.242   0.228   0.227   0.202   0.244   0.215   0.236   0.253   0.214   0.231   0.213   0.242   0.258   0.232   0.250   0.222   0.247   0.280   0.206   0.246   0.215   0.268   0.199   0.264   0.288   0.241   0.223   0.225   0.215
    81.00    0.267   0.259   0.222   0.281   0.265   0.235   0.222   0.237   0.238   0.239   0.260   0.277   0.211   0.244   0.234   0.252   0.270   0.243   0.251   0.255   0.206   0.250   0.241   0.224   0.229   0.214   0.232   0.243   0.244   0.276   0.228   0.265   0.258   0.286   0.290   0.287   0.266   0.231   0.255   0.259   0.252   0.254   0.271   0.238   0.234   0.249   0.237   0.243   0.209   0.259   0.287   0.240   0.231   0.289   0.183   0.231   0.204   0.239   0.231   0.217   0.218   0.242   0.231   0.267   0.192   0.198   0.246   0.243   0.253   0.272   0.242   0.235   0.223   0.228   0.226   0.230   0.204   0.248   0.208   0.263   0.233   0.271   0.231   0.234   0.212   0.270   0.272   0.226   0.213   0.259   0.283   0.215   0.216   0.245   0.258   0.252   0.225   0.236   0.276   0.267
    76.00    0.228   0.217   0.234   0.252   0.280   0.218   0.245   0.242   0.228   0.255   0.251   0.258   0.254   0.239   0.220   0.226   0.193   0.217   0.232   0.267   0.202   0.245   0.205   0.233   0.227   0.228   0.275   0.240   0.257   0.246   0.256   0.242   0.221   0.256   0.238   0.252   0.212   0.252   0.231   0.227   0.248   0.239   0.194   0.215   0.261   0.250   0.284   0.205   0.276   0.235   0.250   0.206   0.233   0.290   0.298   0.234   0.255   0.231   0.257   0.264   0.294   0.292   0.263   0.283   0.296   0.261   0.276   0.185   0.214   0.246   0.246   0.258   0.277   0.216   0.292   0.291   0.203   0.281   0.216   0.204   0.229   0.267   0.214   0.234   0.284   0.210   0.253   0.227   0.234   0.261   0.264   0.251   0.254   0.199   0.259   0.190   0.243   0.245   0.264   0.274
    71.00    0.250   0.266   0.207   0.238   0.238   0.221   0.218   0.203   0.238   0.241   0.272   0.249   0.206   0.270   0.208   0.234   0.260   0.265   0.255   0.201   0.257   0.289   0.276   0.248   0.220   0.200   0.257   0.233   0.211   0.248   0.287   0.245   0.245   0.198   0.225   0.225   0.250   0.192   0.247   0.208   0.244   0.207   0.265   0.284   0.267   0.244   0.230   0.244   0.273   0.242   0.217   0.210   0.223   0.265   0.260   0.208   0.219   0.250   0.278   0.254   0.261   0.247   0.271   0.288   0.293   0.263   0.221   0.275   0.267   0.202   0.266   0.275   0.290   0.284   0.269   0.288   0.219   0.233   0.259   0.259   0.268   0.218   0.210   0.239   0.255   0.235   0.243   0.252   0.250   0.230   0.242   0.206   0.209   0.241   0.215   0.246   0.237   0.256   0.285   0.203
    66.00    0.256   0.210   0.251   0.225   0.238   0.197   0.243   0.277   0.238   0.269   0.272   0.199   0.257   0.239   0.213   0.235   0.274   0.207   0.230   0.221   0.251   0.235   0.252   0.224   0.255   0.260   0.231   0.234   0.237   0.208   0.244   0.260   0.244   0.241   0.262   0.263   0.218   0.265   0.271   0.264   0.214   0.250   0.213   0.230   0.241   0.218   0.235   0.201   0.263   0.222   0.218   0.220   0.234   0.216   0.219   0.257   0.240   0.235   0.279   0.193   0.217   0.207   0.220   0.199   0.248   0.261   0.251   0.248   0.211   0.262   0.270   0.254   0.242   0.248   0.215   0.247   0.263   0.195   0.256   0.226   0.251   0.209   0.228   0.228   0.257   0.253   0.207   0.230   0.255   0.247   0.237   0.206   0.250   0.231   0.221   0.248   0.216   0.265   0.294   0.231
    61.00    0.243   0.273   0.227   0.213   0.243   0.279   0.244   0.263   0.239   0.289   0.225   0.245   0.283   0.298   0.245   0.212   0.206   0.229   0.234   0.230   0.199   0.247   0.228   0.257   0.197   0.206   0.220   0.239   0.272   0.288   0.260   0.206   0.248   0.218   0.251   0.223   0.262   0.225   0.204   0.257   0.271   0.291   0.229   0.270   0.241   0.229   0.246   0.292   0.299   0.215   0.240   0.226   0.247   0.237   0.230   0.198   0.243   0.285   0.206   0.271   0.218   0.279   0.255   0.278   0.272   0.225   0.221   0.240   0.271   0.194   0.269   0.242   0.252   0.225   0.229   0.219   0.260   0.244   0.204   0.247   0.245   0.212   0.238   0.228   0.233   0.226   0.269   0.224   0.223   0.250   0.218   0.268   0.203   0.257   0.216   0.244   0.224   0.221   0.245   0.279
    56.00    0.245   0.261   0.227   0.267   0.301   0.251   0.230   0.200   0.243   0.263   0.215   0.256   0.252   0.279   0.257   0.288   0.208   0.230   0.227   0.216   0.241   0.259   0.214   0.261   0.261   0.274   0.265   0.273   0.242   0.282   0.190   0.266   0.237   0.283   0.282   0.308   0.186   0.210   0.242   0.298   0.229   0.234   0.282   0.279   0.232   0.203   0.216   0.266   0.288   0.244   0.241   0.231   0.245   0.207   0.226   0.227   0.219   0.253   0.241   0.270   0.273   0.245   0.291   0.208   0.224   0.224   0.209   0.246   0.214   0.273   0.279   0.268   0.204   0.246   0.201   0.250   0.195   0.254   0.264   0.244   0.249   0.212   0.220   0.223   0.275   0.286   0.286   0.264   0.294   0.234   0.241   0.239   0.230   0.224   0.233   0.292   0.196   0.249   0.210   0.233
    51.00    0.219   0.225   0.236   0.238   0.288   0.287   0.232   0.228   0.246   0.249   0.198   0.239   0.261   0.220   0.235   0.262   0.257   0.212   0.245   0.280   0.253   0.245   0.224   0.211   0.257   0.283   0.265   0.202   0.217   0.218   0.233   0.264   0.233   0.246   0.238   0.243   0.236   0.265   0.299   0.274   0.279   0.248   0.240   0.228   0.238   0.272   0.233   0.240   0.252   0.281   0.190   0.238   0.234   0.208   0.256   0.278   0.289   0.261   0.224   0.205   0.229   0.234   0.280   0.295   0.188   0.222   0.216   0.240   0.237   0.235   0.237   0.227   0.248   0.256   0.213   0.242   0.268   0.224   0.255   0.289   0.298   0.216   0.229   0.221   0.235   0.215   0.251   0.246   0.280   0.188   0.273   0.186   0.251   0.270   0.271   0.264   0.262   0.201   0.223   0.209
    46.00    0.227   0.251   0.226   0.225   0.250   0.239   0.218   0.245   0.207   0.232   0.239   0.251   0.277   0.189   0.238   0.242   0.222   0.257   0.204   0.243   0.254   0.223   0.279   0.239   0.218   0.248   0.222   0.247   0.265   0.250   0.240   0.236   0.234   0.298   0.225   0.285   0.290   0.236   0.238   0.243   0.238   0.227   0.223   0.233   0.251   0.235   0.227   0.248   0.213   0.237   0.252   0.243   0.236   0.273   0.253   0.258   0.271   0.245   0.206   0.239   0.215   0.267   0.263   0.227   0.247   0.233   0.226   0.258   0.200   0.230   0.246   0.243   0.217   0.229   0.210   0.222   0.228   0.232   0.225   0.206   0.233   0.242   0.231   0.258   0.247   0.272   0.202   0.212   0.221   0.261   0.282   0.282   0.295   0.213   0.261   0.224   0.243   0.242   0.275   0.257
    41.00    0.226   0.212   0.239   0.231   0.235   0.216   0.214   0.250   0.223   0.217   0.254   0.282   0.222   0.265   0.258   0.220   0.236   0.223   0.236   0.224   0.283   0.194   0.221   0.251   0.206   0.238   0.223   0.238   0.243   0.276   0.210   0.261   0.241   0.278   0.280   0.273   0.281   0.188   0.246   0.242   0.196   0.250   0.220   0.223   0.255   0.281   0.230   0.202   0.205   0.248   0.267   0.214   0.230   0.281   0.210   0.235   0.200   0.266   0.297   0.225   0.254   0.234   0.224   0.211   0.222   0.213   0.258   0.247   0.238   0.225   0.245   0.208   0.237   0.234   0.239   0.263   0.271   0.220   0.222   0.233   0.243   0.221   0.226   0.259   0.213   0.205   0.228   0.211   0.248   0.251   0.229   0.228   0.252   0.222   0.255   0.270   0.215   0.199   0.239   0.248
    36.00    0.267   0.191   0.211   0.226   0.234   0.222   0.261   0.287   0.300   0.301   0.206   0.261   0.197   0.218   0.224   0.238   0.232   0.235   0.261   0.295   0.218   0.270   0.202   0.258   0.241   0.227   0.239   0.229   0.206   0.209   0.221   0.239   0.232   0.280   0.293   0.247   0.253   0.267   0.242   0.248   0.207   0.268   0.205   0.225   0.269   0.286   0.278   0.296   0.260   0.220   0.252   0.195   0.243   0.230   0.256   0.255   0.237   0.268   0.245   0.238   0.236   0.223   0.237   0.248   0.192   0.257   0.252   0.216   0.246   0.229   0.241   0.212   0.249   0.223   0.256   0.202   0.252   0.196   0.218   0.218   0.228   0.207   0.264   0.239   0.236   0.261   0.243   0.233   0.267   0.275   0.217   0.209   0.222   0.245   0.189   0.253   0.296   0.311   0.310   0.207
    31.00    0.239   0.253   0.295   0.262   0.259   0.232   0.195   0.230   0.260   0.257   0.203   0.221   0.257   0.246   0.245   0.240   0.229   0.273   0.198   0.254   0.287   0.190   0.228   0.229   0.220   0.261   0.250   0.240   0.241   0.216   0.222   0.249   0.209   0.237   0.258   0.283   0.282   0.244   0.238   0.279   0.234   0.265   0.230   0.231   0.235   0.252   0.241   0.283   0.312   0.251   0.196   0.232   0.253   0.229   0.213   0.247   0.220   0.226   0.238   0.224   0.267   0.310   0.197   0.260   0.286   0.235   0.219   0.201   0.271   0.222   0.243   0.226   0.233   0.209   0.251   0.209   0.260   0.250   0.263   0.264   0.235   0.268   0.226   0.240   0.222   0.235   0.258   0.199   0.222   0.233   0.248   0.217   0.277   0.222   0.285   0.270   0.258   0.275   0.248   0.228
    26.00    0.215   0.241   0.271   0.266   0.252   0.212   0.274   0.206   0.242   0.209   0.256   0.298   0.268   0.231   0.278   0.294   0.304   0.309   0.290   0.219   0.272   0.251   0.219   0.242   0.244   0.217   0.210   0.250   0.226   0.240   0.215   0.216   0.209   0.210   0.230   0.280   0.230   0.235   0.212   0.247   0.210   0.235   0.209   0.268   0.231   0.241   0.226   0.251   0.307   0.303   0.273   0.205   0.218   0.253   0.217   0.248   0.255   0.283   0.246   0.211   0.264   0.257   0.298   0.221   0.254   0.253   0.274   0.293   0.295   0.279   0.191   0.222   0.236   0.249   0.228   0.271   0.220   0.200   0.261   0.243   0.268   0.253   0.221   0.265   0.238   0.222   0.210   0.237   0.294   0.311   0.302   0.251   0.204   0.230   0.228   0.256   0.207   0.220   0.247   0.271
    21.00    0.229   0.252   0.242   0.216   0.238   0.215   0.234   0.215   0.217   0.247   0.240   0.254   0.250   0.236   0.275   0.272   0.284   0.259   0.283   0.231   0.242   0.246   0.263   0.276   0.208   0.244   0.270   0.246   0.220   0.265   0.239   0.246   0.266   0.269   0.228   0.230   0.201   0.224   0.233   0.232   0.222   0.209   0.231   0.259   0.254   0.221   0.202   0.270   0.289   0.291   0.254   0.280   0.269   0.263   0.266   0.208   0.250   0.266   0.193   0.255   0.275   0.271   0.291   0.303   0.296   0.215   0.261   0.247   0.250   0.196   0.242   0.283   0.234   0.200   0.239   0.243   0.195   0.241   0.287   0.311   0.179   0.267   0.256   0.289   0.188   0.229   0.233   0.242   0.269   0.263   0.240   0.205   0.242   0.251   0.214   0.244   0.194   0.215   0.251   0.235
    16.00    0.223   0.236   0.234   0.227   0.215   0.240   0.225   0.283   0.253   0.199   0.247   0.280   0.290   0.205   0.225   0.253   0.276   0.243   0.261   0.186   0.214   0.244   0.215   0.216   0.223   0.256   0.241   0.211   0.252   0.236   0.219   0.269   0.268   0.260   0.235   0.237   0.243   0.243   0.222   0.215   0.282   0.295   0.270   0.216   0.212   0.252   0.214   0.252   0.257   0.289   0.207   0.256   0.230   0.226   0.246   0.218   0.255   0.187   0.251   0.265   0.248   0.226   0.207   0.261   0.240   0.265   0.285   0.194   0.254   0.256   0.249   0.232   0.248   0.275   0.264   0.232   0.244   0.249   0.253   0.267   0.300   0.294   0.223   0.242   0.252   0.248   0.256   0.209   0.237   0.241   0.246   0.223   0.238   0.231   0.225   0.235   0.266   0.216   0.229   0.223
    11.00    0.243   0.268   0.213   0.254   0.237   0.223   0.256   0.266   0.236   0.249   0.253   0.227   0.266   0.254   0.262   0.232   0.264   0.211   0.259   0.233   0.268   0.255   0.217   0.232   0.263   0.275   0.209   0.243   0.219   0.236   0.225   0.233   0.260   0.250   0.218   0.233   0.230   0.228   0.233   0.226   0.220   0.250   0.268   0.250   0.268   0.251   0.239   0.265   0.269   0.248   0.270   0.269   0.217   0.246   0.232   0.230   0.266   0.260   0.273   0.259   0.211   0.258   0.263   0.224   0.259   0.269   0.269   0.237   0.266   0.222   0.224   0.219   0.237   0.229   0.220   0.245   0.247   0.212   0.228   0.260   0.274   0.271   0.215   0.257   0.212   0.230   0.261   0.249   0.238   0.238   0.251   0.266   0.276   0.227   0.224   0.222   0.251   0.239   0.263   0.271

   Mean standard deviation across all grid points:
      u component:    0.235 m/s
      v component:    0.265 m/s
      w component:    0.242 m/s


U-component (X) statistics from the interpolated hub point:

   Mean =   8.1039 m/s
   TI   =   3.0044 %


Processing complete.  3.7188 CPU seconds used.
